
Spectre (R) Circuit Simulator
Version 23.1.0.327.isr4 64bit -- 9 Dec 2023
Copyright (C) 1989-2023 Cadence Design Systems, Inc. All rights reserved worldwide. Cadence and Spectre are registered trademarks of Cadence Design Systems, Inc. All others are the property of their respective holders.

Includes RSA BSAFE(R) Cryptographic or Security Protocol Software from RSA Security, Inc.

User: s5117909   Host: bics02   HostID: 7F0101   PID: 23255
Memory  available: 108.0941 GB  physical: 135.0280 GB
Linux   : CentOS Linux release 7 (Core)
CPU Type: Intel(R) Xeon(R) Gold 6150 CPU @ 2.70GHz
All processors running at 2693.7 MHz
        Socket: Processors
        0:       0,  1,  2,  3,  4,  5,  6,  7,  8,  9
                10, 11
        
System load averages (1min, 5min, 15min) : 24.9 %, 13.3 %, 10.6 %
HPC is enabled
This is a virtual machine


Simulating `input.scs' on bics02 at 2:25:51 PM, Mon May 18, 2026 (process id: 23255).
Current working directory: /home/s5117909/simulation/synapsedualinputtb/spectre/schematic/netlist
Command line:
    /projects/bics/cadence/installs/SPECTRE231/tools.lnx86/bin/spectre  \
        -64 input.scs +escchars +log  \
        ../../../../../Documents/thesis/sebastian_thesis_repo/processing/cadence_extraction/output_single_data/st1_241_hz__st2_481_hz__trial_1/psf/spectre.out  \
        -format psfxl -raw  \
        ../../../../../Documents/thesis/sebastian_thesis_repo/processing/cadence_extraction/output_single_data/st1_241_hz__st2_481_hz__trial_1/psf  \
        +aps +mt +lqtimeout 900 -maxw 5 -maxn 5 -env ade  \
        +adespetkn=adespe ++aps +mt=4

Licensing Information:
[14:25:52.084889] Configured Lic search path (22.01-s002): 5280@lic009.workspace.rug.nl

Licensing Information:
[14:25:52.226528] Periodic Lic check successful

Loading /projects/bics/cadence/installs/SPECTRE231/tools.lnx86/cmi/lib/64bit/5.0/libinfineon_sh.so ...
Loading /projects/bics/cadence/installs/SPECTRE231/tools.lnx86/cmi/lib/64bit/5.0/libphilips_I_sh.so ...
Loading /projects/bics/cadence/installs/SPECTRE231/tools.lnx86/cmi/lib/64bit/5.0/libphilips_sh.so ...
Loading /projects/bics/cadence/installs/SPECTRE231/tools.lnx86/cmi/lib/64bit/5.0/libsparam_sh.so ...
Loading /projects/bics/cadence/installs/SPECTRE231/tools.lnx86/cmi/lib/64bit/5.0/libstmodels_sh.so ...
Reading file:  /home/s5117909/simulation/synapsedualinputtb/spectre/schematic/netlist/input.scs
Reading file:  /projects/bics/cadence/installs/SPECTRE231/tools.lnx86/spectre/etc/configs/spectre.cfg

Error found by spectre during circuit read-in.
    ERROR (SFE-868): "input.scs" 7: Cannot open the input file 'ade_e.scs' because either the file name or the directory specified is invalid. Ensure that the specified file exists and the path to the file is valid. Alternatively, use the -I <path> command-line option to specify the path to the file and rerun the simulation.

Time for NDB Parsing: CPU = 113.748 ms, elapsed = 290.808 ms.
Time accumulated: CPU = 264.925 ms, elapsed = 290.815 ms.
Peak resident memory used = 88.5 Mbytes.

Licensing Information:
Lic Summary:
[14:25:52.289971] Cdslmd servers:5280@lic009.workspace.rug.nl
[14:25:52.289994] Feature usage summary:
[14:25:52.289995] Virtuoso_Multi_mode_Simulation


Aggregate audit (2:25:52 PM, Mon May 18, 2026):
Time used: CPU = 267 ms, elapsed = 293 ms, util. = 91.2%.
Time spent in licensing: elapsed = 267 ms, percentage of total = 91.2%.
Peak memory used = 89.3 Mbytes.
Simulation started at: 2:25:51 PM, Mon May 18, 2026, ended at: 2:25:52 PM, Mon May 18, 2026, with elapsed time (wall clock): 293 ms.
spectre completes with 1 error, 0 warnings, and 0 notices.
spectre terminated prematurely due to fatal error.
