
Spectre (R) Circuit Simulator
Version 23.1.0.327.isr4 64bit -- 9 Dec 2023
Copyright (C) 1989-2023 Cadence Design Systems, Inc. All rights reserved worldwide. Cadence and Spectre are registered trademarks of Cadence Design Systems, Inc. All others are the property of their respective holders.

Includes RSA BSAFE(R) Cryptographic or Security Protocol Software from RSA Security, Inc.

User: s5117909   Host: bics02   HostID: 7F0101   PID: 31119
Memory  available: 109.7233 GB  physical: 135.0280 GB
Linux   : CentOS Linux release 7 (Core)
CPU Type: Intel(R) Xeon(R) Gold 6150 CPU @ 2.70GHz
All processors running at 2693.7 MHz
        Socket: Processors
        0:       0,  1,  2,  3,  4,  5,  6,  7,  8,  9
                10, 11
        
System load averages (1min, 5min, 15min) : 15.7 %, 9.7 %, 9.0 %
HPC is enabled
This is a virtual machine


Simulating `input.scs' on bics02 at 11:13:29 AM, Tue May 19, 2026 (process id: 31119).
Current working directory: /home/s5117909/simulation/synapsedualinputtb/spectre/schematic/netlist
Command line:
    /projects/bics/cadence/installs/SPECTRE231/tools.lnx86/bin/spectre  \
        -64 input.scs +escchars +log  \
        ../../../../../Documents/thesis/sebastian_thesis_repo/processing/cadence_extraction/output_single_data/st1_81_hz__st2_401_hz__trial_1/psf/spectre.out  \
        -format psfxl -raw  \
        ../../../../../Documents/thesis/sebastian_thesis_repo/processing/cadence_extraction/output_single_data/st1_81_hz__st2_401_hz__trial_1/psf  \
        +aps +mt +lqtimeout 900 -maxw 5 -maxn 5 -env ade  \
        +adespetkn=adespe ++aps +mt=4

Licensing Information:
[11:13:29.084873] Configured Lic search path (22.01-s002): 5280@lic009.workspace.rug.nl

Licensing Information:
[11:13:29.363560] Periodic Lic check successful

Loading /projects/bics/cadence/installs/SPECTRE231/tools.lnx86/cmi/lib/64bit/5.0/libinfineon_sh.so ...
Loading /projects/bics/cadence/installs/SPECTRE231/tools.lnx86/cmi/lib/64bit/5.0/libphilips_I_sh.so ...
Loading /projects/bics/cadence/installs/SPECTRE231/tools.lnx86/cmi/lib/64bit/5.0/libphilips_sh.so ...
Loading /projects/bics/cadence/installs/SPECTRE231/tools.lnx86/cmi/lib/64bit/5.0/libsparam_sh.so ...
Loading /projects/bics/cadence/installs/SPECTRE231/tools.lnx86/cmi/lib/64bit/5.0/libstmodels_sh.so ...
Reading file:  /home/s5117909/simulation/synapsedualinputtb/spectre/schematic/netlist/input.scs
Reading file:  /projects/bics/cadence/installs/SPECTRE231/tools.lnx86/spectre/etc/configs/spectre.cfg
Reading file:  /home/s5117909/simulation/synapsedualinputtb/spectre/schematic/netlist/ade_e.scs
Reading file:  /projects/bics/designkits/xfab/xp018/cadence/v8_0/spectre/v8_0_1/lp5mos/config.scs
Reading file:  /projects/bics/designkits/xfab/xp018/cadence/v8_0/spectre/v8_0_1/lp5mos/param.scs
Reading file:  /projects/bics/designkits/xfab/xp018/cadence/v8_0/spectre/v8_0_1/lp5mos/bip.scs
Reading file:  /projects/bics/designkits/xfab/xp018/cadence/v8_0/spectre/v8_0_1/lp5mos/models/bip/tm_bip.scs
Reading file:  /projects/bics/designkits/xfab/xp018/cadence/v8_0/spectre/v8_0_1/lp5mos/models/bip/qpva.scs
Reading file:  /projects/bics/designkits/xfab/xp018/cadence/v8_0/spectre/v8_0_1/lp5mos/models/bip/qpvb.scs
Reading file:  /projects/bics/designkits/xfab/xp018/cadence/v8_0/spectre/v8_0_1/lp5mos/models/bip/qpvc.scs
Reading file:  /projects/bics/designkits/xfab/xp018/cadence/v8_0/spectre/v8_0_1/lp5mos/models/bip/qpva5.scs
Reading file:  /projects/bics/designkits/xfab/xp018/cadence/v8_0/spectre/v8_0_1/lp5mos/models/bip/qpvb5.scs
Reading file:  /projects/bics/designkits/xfab/xp018/cadence/v8_0/spectre/v8_0_1/lp5mos/models/bip/qpvc5.scs
Reading file:  /projects/bics/designkits/xfab/xp018/cadence/v8_0/spectre/v8_0_1/lp5mos/models/bip/qnva.scs
Reading file:  /projects/bics/designkits/xfab/xp018/cadence/v8_0/spectre/v8_0_1/lp5mos/models/bip/qnva5.scs
Reading file:  /projects/bics/designkits/xfab/xp018/cadence/v8_0/spectre/v8_0_1/lp5mos/models/bip/qnvb.scs
Reading file:  /projects/bics/designkits/xfab/xp018/cadence/v8_0/spectre/v8_0_1/lp5mos/models/bip/qpvh.scs
Reading file:  /projects/bics/designkits/xfab/xp018/cadence/v8_0/spectre/v8_0_1/lp5mos/models/bip/qpvhascr.scs
Reading file:  /projects/bics/designkits/xfab/xp018/cadence/v8_0/spectre/v8_0_1/lp5mos/models/bip/qnvc.scs
Reading file:  /projects/bics/designkits/xfab/xp018/cadence/v8_0/spectre/v8_0_1/lp5mos/models/bip/qnvca.scs
Reading file:  /projects/bics/designkits/xfab/xp018/cadence/v8_0/spectre/v8_0_1/lp5mos/models/bip/qnvcra.scs
Reading file:  /projects/bics/designkits/xfab/xp018/cadence/v8_0/spectre/v8_0_1/lp5mos/models/bip/qnvcrb.scs
Reading file:  /projects/bics/designkits/xfab/xp018/cadence/v8_0/spectre/v8_0_1/lp5mos/models/bip/qpv_pa.scs
Reading file:  /projects/bics/designkits/xfab/xp018/cadence/v8_0/spectre/v8_0_1/lp5mos/models/bip/qpv_pb.scs
Reading file:  /projects/bics/designkits/xfab/xp018/cadence/v8_0/spectre/v8_0_1/lp5mos/models/bip/qpv_pc.scs
Reading file:  /projects/bics/designkits/xfab/xp018/cadence/v8_0/spectre/v8_0_1/lp5mos/models/bip/qpv_pd.scs
Reading file:  /projects/bics/designkits/xfab/xp018/cadence/v8_0/spectre/v8_0_1/lp5mos/models/bip/qpv_pe.scs
Reading file:  /projects/bics/designkits/xfab/xp018/cadence/v8_0/spectre/v8_0_1/lp5mos/models/bip/qpv_pf.scs
Reading file:  /projects/bics/designkits/xfab/xp018/cadence/v8_0/spectre/v8_0_1/lp5mos/models/bip/qpv_pf2.scs
Reading file:  /projects/bics/designkits/xfab/xp018/cadence/v8_0/spectre/v8_0_1/lp5mos/models/bip/qpv_pg.scs
Reading file:  /projects/bics/designkits/xfab/xp018/cadence/v8_0/spectre/v8_0_1/lp5mos/models/bip/qnl_pa.scs
Reading file:  /projects/bics/designkits/xfab/xp018/cadence/v8_0/spectre/v8_0_1/lp5mos/models/bip/qnl_pb.scs
Reading file:  /projects/bics/designkits/xfab/xp018/cadence/v8_0/spectre/v8_0_1/lp5mos/models/bip/qpl_pa.scs
Reading file:  /projects/bics/designkits/xfab/xp018/cadence/v8_0/spectre/v8_0_1/lp5mos/models/bip/qpl_pb.scs
Reading file:  /projects/bics/designkits/xfab/xp018/cadence/v8_0/spectre/v8_0_1/lp5mos/models/bip/qpv_ndia.scs
Reading file:  /projects/bics/designkits/xfab/xp018/cadence/v8_0/spectre/v8_0_1/lp5mos/models/bip/qnv_ndia.scs
Reading file:  /projects/bics/designkits/xfab/xp018/cadence/v8_0/spectre/v8_0_1/lp5mos/models/bip/qpv_ndib.scs
Reading file:  /projects/bics/designkits/xfab/xp018/cadence/v8_0/spectre/v8_0_1/lp5mos/models/bip/qnv_ndib.scs
Reading file:  /projects/bics/designkits/xfab/xp018/cadence/v8_0/spectre/v8_0_1/lp5mos/models/bip/qpv_nhva.scs
Reading file:  /projects/bics/designkits/xfab/xp018/cadence/v8_0/spectre/v8_0_1/lp5mos/models/bip/qpv_nhvb.scs
Reading file:  /projects/bics/designkits/xfab/xp018/cadence/v8_0/spectre/v8_0_1/lp5mos/models/bip/qpv_phva.scs
Reading file:  /projects/bics/designkits/xfab/xp018/cadence/v8_0/spectre/v8_0_1/lp5mos/models/bip/qpv_phvb.scs
Reading file:  /projects/bics/designkits/xfab/xp018/cadence/v8_0/spectre/v8_0_1/lp5mos/cap.scs
Reading file:  /projects/bics/designkits/xfab/xp018/cadence/v8_0/spectre/v8_0_1/lp5mos/models/cap/tm_cap.scs
Reading file:  /projects/bics/designkits/xfab/xp018/cadence/v8_0/spectre/v8_0_1/lp5mos/models/cap/csandwt3.scs
Reading file:  /projects/bics/designkits/xfab/xp018/cadence/v8_0/spectre/v8_0_1/lp5mos/models/cap/csandwt4.scs
Reading file:  /projects/bics/designkits/xfab/xp018/cadence/v8_0/spectre/v8_0_1/lp5mos/models/cap/csandwt5.scs
Reading file:  /projects/bics/designkits/xfab/xp018/cadence/v8_0/spectre/v8_0_1/lp5mos/models/cap/csf2p.scs
Reading file:  /projects/bics/designkits/xfab/xp018/cadence/v8_0/spectre/v8_0_1/lp5mos/models/cap/csf3p.scs
Reading file:  /projects/bics/designkits/xfab/xp018/cadence/v8_0/spectre/v8_0_1/lp5mos/models/cap/csf3.scs
Reading file:  /projects/bics/designkits/xfab/xp018/cadence/v8_0/spectre/v8_0_1/lp5mos/models/cap/csf4.scs
Reading file:  /projects/bics/designkits/xfab/xp018/cadence/v8_0/spectre/v8_0_1/lp5mos/models/cap/csf5.scs
Reading file:  /projects/bics/designkits/xfab/xp018/cadence/v8_0/spectre/v8_0_1/lp5mos/models/cap/csft4.scs
Reading file:  /projects/bics/designkits/xfab/xp018/cadence/v8_0/spectre/v8_0_1/lp5mos/models/cap/csft5.scs
Reading file:  /projects/bics/designkits/xfab/xp018/cadence/v8_0/spectre/v8_0_1/lp5mos/models/cap/csft6.scs
Reading file:  /projects/bics/designkits/xfab/xp018/cadence/v8_0/spectre/v8_0_1/lp5mos/models/cap/csf3a.scs
Reading file:  /projects/bics/designkits/xfab/xp018/cadence/v8_0/spectre/v8_0_1/lp5mos/models/cap/csf4a.scs
Reading file:  /projects/bics/designkits/xfab/xp018/cadence/v8_0/spectre/v8_0_1/lp5mos/models/cap/csf5a.scs
Reading file:  /projects/bics/designkits/xfab/xp018/cadence/v8_0/spectre/v8_0_1/lp5mos/models/cap/csft4a.scs
Reading file:  /projects/bics/designkits/xfab/xp018/cadence/v8_0/spectre/v8_0_1/lp5mos/models/cap/csft5a.scs
Reading file:  /projects/bics/designkits/xfab/xp018/cadence/v8_0/spectre/v8_0_1/lp5mos/models/cap/csft6a.scs
Reading file:  /projects/bics/designkits/xfab/xp018/cadence/v8_0/spectre/v8_0_1/lp5mos/models/cap/cmm3.scs
Reading file:  /projects/bics/designkits/xfab/xp018/cadence/v8_0/spectre/v8_0_1/lp5mos/models/cap/cmm3t.scs
Reading file:  /projects/bics/designkits/xfab/xp018/cadence/v8_0/spectre/v8_0_1/lp5mos/models/cap/cmm4.scs
Reading file:  /projects/bics/designkits/xfab/xp018/cadence/v8_0/spectre/v8_0_1/lp5mos/models/cap/cmm4t.scs
Reading file:  /projects/bics/designkits/xfab/xp018/cadence/v8_0/spectre/v8_0_1/lp5mos/models/cap/cmm5.scs
Reading file:  /projects/bics/designkits/xfab/xp018/cadence/v8_0/spectre/v8_0_1/lp5mos/models/cap/cmm5t.scs
Reading file:  /projects/bics/designkits/xfab/xp018/cadence/v8_0/spectre/v8_0_1/lp5mos/models/cap/cmm6t.scs
Reading file:  /projects/bics/designkits/xfab/xp018/cadence/v8_0/spectre/v8_0_1/lp5mos/models/cap/cmmh3.scs
Reading file:  /projects/bics/designkits/xfab/xp018/cadence/v8_0/spectre/v8_0_1/lp5mos/models/cap/cmmh3t.scs
Reading file:  /projects/bics/designkits/xfab/xp018/cadence/v8_0/spectre/v8_0_1/lp5mos/models/cap/cmmh3l.scs
Reading file:  /projects/bics/designkits/xfab/xp018/cadence/v8_0/spectre/v8_0_1/lp5mos/models/cap/cmmh4.scs
Reading file:  /projects/bics/designkits/xfab/xp018/cadence/v8_0/spectre/v8_0_1/lp5mos/models/cap/cmmh4t.scs
Reading file:  /projects/bics/designkits/xfab/xp018/cadence/v8_0/spectre/v8_0_1/lp5mos/models/cap/cmmh4l.scs
Reading file:  /projects/bics/designkits/xfab/xp018/cadence/v8_0/spectre/v8_0_1/lp5mos/models/cap/cmmh5.scs
Reading file:  /projects/bics/designkits/xfab/xp018/cadence/v8_0/spectre/v8_0_1/lp5mos/models/cap/cmmh5t.scs
Reading file:  /projects/bics/designkits/xfab/xp018/cadence/v8_0/spectre/v8_0_1/lp5mos/models/cap/cmmh5l.scs
Reading file:  /projects/bics/designkits/xfab/xp018/cadence/v8_0/spectre/v8_0_1/lp5mos/models/cap/cmmh6t.scs
Reading file:  /projects/bics/designkits/xfab/xp018/cadence/v8_0/spectre/v8_0_1/lp5mos/models/cap/cmmh6l.scs
Reading file:  /projects/bics/designkits/xfab/xp018/cadence/v8_0/spectre/v8_0_1/lp5mos/models/cap/cdmm4.scs
Reading file:  /projects/bics/designkits/xfab/xp018/cadence/v8_0/spectre/v8_0_1/lp5mos/models/cap/cdmm4t.scs
Reading file:  /projects/bics/designkits/xfab/xp018/cadence/v8_0/spectre/v8_0_1/lp5mos/models/cap/cdmmh4.scs
Reading file:  /projects/bics/designkits/xfab/xp018/cadence/v8_0/spectre/v8_0_1/lp5mos/models/cap/cdmmh4t.scs
Reading file:  /projects/bics/designkits/xfab/xp018/cadence/v8_0/spectre/v8_0_1/lp5mos/models/cap/cdmm5.scs
Reading file:  /projects/bics/designkits/xfab/xp018/cadence/v8_0/spectre/v8_0_1/lp5mos/models/cap/cdmm5t.scs
Reading file:  /projects/bics/designkits/xfab/xp018/cadence/v8_0/spectre/v8_0_1/lp5mos/models/cap/cdmmh5.scs
Reading file:  /projects/bics/designkits/xfab/xp018/cadence/v8_0/spectre/v8_0_1/lp5mos/models/cap/cdmmh5t.scs
Reading file:  /projects/bics/designkits/xfab/xp018/cadence/v8_0/spectre/v8_0_1/lp5mos/models/cap/cdmm6t.scs
Reading file:  /projects/bics/designkits/xfab/xp018/cadence/v8_0/spectre/v8_0_1/lp5mos/models/cap/cdmmh6t.scs
Reading file:  /projects/bics/designkits/xfab/xp018/cadence/v8_0/spectre/v8_0_1/lp5mos/models/cap/ctmm5.scs
Reading file:  /projects/bics/designkits/xfab/xp018/cadence/v8_0/spectre/v8_0_1/lp5mos/models/cap/ctmm5t.scs
Reading file:  /projects/bics/designkits/xfab/xp018/cadence/v8_0/spectre/v8_0_1/lp5mos/models/cap/ctmmh5.scs
Reading file:  /projects/bics/designkits/xfab/xp018/cadence/v8_0/spectre/v8_0_1/lp5mos/models/cap/ctmmh5t.scs
Reading file:  /projects/bics/designkits/xfab/xp018/cadence/v8_0/spectre/v8_0_1/lp5mos/models/cap/ctmm6t.scs
Reading file:  /projects/bics/designkits/xfab/xp018/cadence/v8_0/spectre/v8_0_1/lp5mos/models/cap/ctmmh6t.scs
Reading file:  /projects/bics/designkits/xfab/xp018/cadence/v8_0/spectre/v8_0_1/lp5mos/models/cap/cp1sub.scs
Reading file:  /projects/bics/designkits/xfab/xp018/cadence/v8_0/spectre/v8_0_1/lp5mos/models/cap/cp1suba.scs
Reading file:  /projects/bics/designkits/xfab/xp018/cadence/v8_0/spectre/v8_0_1/lp5mos/models/cap/cp1subp.scs
Reading file:  /projects/bics/designkits/xfab/xp018/cadence/v8_0/spectre/v8_0_1/lp5mos/models/cap/p_cap.scs
Reading file:  /projects/bics/designkits/xfab/xp018/cadence/v8_0/spectre/v8_0_1/lp5mos/models/cap/oc_m60v_60v.scs
Reading file:  /projects/bics/designkits/xfab/xp018/cadence/v8_0/spectre/v8_0_1/lp5mos/models/cap/mosvc.scs
Reading file:  /projects/bics/designkits/xfab/xp018/cadence/v8_0/spectre/v8_0_1/lp5mos/models/cap/mosvc_pmos.scs
Reading file:  /projects/bics/designkits/xfab/xp018/cadence/v8_0/spectre/v8_0_1/lp5mos/models/cap/mosvci_a.scs
Reading file:  /projects/bics/designkits/xfab/xp018/cadence/v8_0/spectre/v8_0_1/lp5mos/models/cap/mosvci_b.scs
Reading file:  /projects/bics/designkits/xfab/xp018/cadence/v8_0/spectre/v8_0_1/lp5mos/models/cap/mosvci_d.scs
Reading file:  /projects/bics/designkits/xfab/xp018/cadence/v8_0/spectre/v8_0_1/lp5mos/models/cap/mosvci_m.scs
Reading file:  /projects/bics/designkits/xfab/xp018/cadence/v8_0/spectre/v8_0_1/lp5mos/models/cap/mosvci_nmos.scs
Reading file:  /projects/bics/designkits/xfab/xp018/cadence/v8_0/spectre/v8_0_1/lp5mos/models/cap/mosvc5.scs
Reading file:  /projects/bics/designkits/xfab/xp018/cadence/v8_0/spectre/v8_0_1/lp5mos/models/cap/mosvc5_pmos.scs
Reading file:  /projects/bics/designkits/xfab/xp018/cadence/v8_0/spectre/v8_0_1/lp5mos/models/cap/mosvc5i_a.scs
Reading file:  /projects/bics/designkits/xfab/xp018/cadence/v8_0/spectre/v8_0_1/lp5mos/models/cap/mosvc5i_b.scs
Reading file:  /projects/bics/designkits/xfab/xp018/cadence/v8_0/spectre/v8_0_1/lp5mos/models/cap/mosvc5i_d.scs
Reading file:  /projects/bics/designkits/xfab/xp018/cadence/v8_0/spectre/v8_0_1/lp5mos/models/cap/mosvc5i_m.scs
Reading file:  /projects/bics/designkits/xfab/xp018/cadence/v8_0/spectre/v8_0_1/lp5mos/models/cap/mosvc5i_nmos.scs
Reading file:  /projects/bics/designkits/xfab/xp018/cadence/v8_0/spectre/v8_0_1/lp5mos/models/cap/tag_25v.scs
Reading file:  /projects/bics/designkits/xfab/xp018/cadence/v8_0/spectre/v8_0_1/lp5mos/models/cap/tag_60v.scs
Reading file:  /projects/bics/designkits/xfab/xp018/cadence/v8_0/spectre/v8_0_1/lp5mos/models/cap/tag_100v.scs
Reading file:  /projects/bics/designkits/xfab/xp018/cadence/v8_0/spectre/v8_0_1/lp5mos/models/cap/tag_m25v.scs
Reading file:  /projects/bics/designkits/xfab/xp018/cadence/v8_0/spectre/v8_0_1/lp5mos/models/cap/tag_m60v.scs
Reading file:  /projects/bics/designkits/xfab/xp018/cadence/v8_0/spectre/v8_0_1/lp5mos/models/cap/tag_m100v.scs
Reading file:  /projects/bics/designkits/xfab/xp018/cadence/v8_0/spectre/v8_0_1/lp5mos/dio.scs
Reading file:  /projects/bics/designkits/xfab/xp018/cadence/v8_0/spectre/v8_0_1/lp5mos/models/dio/tm_dio.scs
Reading file:  /projects/bics/designkits/xfab/xp018/cadence/v8_0/spectre/v8_0_1/lp5mos/models/dio/dn.scs
Reading file:  /projects/bics/designkits/xfab/xp018/cadence/v8_0/spectre/v8_0_1/lp5mos/models/dio/dnn.scs
Reading file:  /projects/bics/designkits/xfab/xp018/cadence/v8_0/spectre/v8_0_1/lp5mos/models/dio/dp.scs
Reading file:  /projects/bics/designkits/xfab/xp018/cadence/v8_0/spectre/v8_0_1/lp5mos/models/dio/dnw.scs
Reading file:  /projects/bics/designkits/xfab/xp018/cadence/v8_0/spectre/v8_0_1/lp5mos/models/dio/dn5.scs
Reading file:  /projects/bics/designkits/xfab/xp018/cadence/v8_0/spectre/v8_0_1/lp5mos/models/dio/dnn5.scs
Reading file:  /projects/bics/designkits/xfab/xp018/cadence/v8_0/spectre/v8_0_1/lp5mos/models/dio/dp5.scs
Reading file:  /projects/bics/designkits/xfab/xp018/cadence/v8_0/spectre/v8_0_1/lp5mos/models/dio/dnw5.scs
Reading file:  /projects/bics/designkits/xfab/xp018/cadence/v8_0/spectre/v8_0_1/lp5mos/models/dio/ddnwmv.scs
Reading file:  /projects/bics/designkits/xfab/xp018/cadence/v8_0/spectre/v8_0_1/lp5mos/models/dio/ddnw15.scs
Reading file:  /projects/bics/designkits/xfab/xp018/cadence/v8_0/spectre/v8_0_1/lp5mos/models/dio/ddnw25.scs
Reading file:  /projects/bics/designkits/xfab/xp018/cadence/v8_0/spectre/v8_0_1/lp5mos/models/dio/ddnw60.scs
Reading file:  /projects/bics/designkits/xfab/xp018/cadence/v8_0/spectre/v8_0_1/lp5mos/models/dio/dpdnwmv.scs
Reading file:  /projects/bics/designkits/xfab/xp018/cadence/v8_0/spectre/v8_0_1/lp5mos/models/dio/dpdnw15.scs
Reading file:  /projects/bics/designkits/xfab/xp018/cadence/v8_0/spectre/v8_0_1/lp5mos/models/dio/dpdnw25.scs
Reading file:  /projects/bics/designkits/xfab/xp018/cadence/v8_0/spectre/v8_0_1/lp5mos/models/dio/dpdnw60.scs
Reading file:  /projects/bics/designkits/xfab/xp018/cadence/v8_0/spectre/v8_0_1/lp5mos/models/dio/dipdnwmv.scs
Reading file:  /projects/bics/designkits/xfab/xp018/cadence/v8_0/spectre/v8_0_1/lp5mos/models/dio/dipdnw15.scs
Reading file:  /projects/bics/designkits/xfab/xp018/cadence/v8_0/spectre/v8_0_1/lp5mos/models/dio/dipdnw25.scs
Reading file:  /projects/bics/designkits/xfab/xp018/cadence/v8_0/spectre/v8_0_1/lp5mos/models/dio/dipdnw60.scs
Reading file:  /projects/bics/designkits/xfab/xp018/cadence/v8_0/spectre/v8_0_1/lp5mos/models/dio/dipdnwmvz.scs
Reading file:  /projects/bics/designkits/xfab/xp018/cadence/v8_0/spectre/v8_0_1/lp5mos/models/dio/dipdnw15z.scs
Reading file:  /projects/bics/designkits/xfab/xp018/cadence/v8_0/spectre/v8_0_1/lp5mos/models/dio/dipdnw25z.scs
Reading file:  /projects/bics/designkits/xfab/xp018/cadence/v8_0/spectre/v8_0_1/lp5mos/models/dio/dipdnw60z.scs
Reading file:  /projects/bics/designkits/xfab/xp018/cadence/v8_0/spectre/v8_0_1/lp5mos/models/dio/dnp.scs
Reading file:  /projects/bics/designkits/xfab/xp018/cadence/v8_0/spectre/v8_0_1/lp5mos/models/dio/dpp.scs
Reading file:  /projects/bics/designkits/xfab/xp018/cadence/v8_0/spectre/v8_0_1/lp5mos/models/dio/dsa.scs
Reading file:  /projects/bics/designkits/xfab/xp018/cadence/v8_0/spectre/v8_0_1/lp5mos/models/dio/dsaa.scs
Reading file:  /projects/bics/designkits/xfab/xp018/cadence/v8_0/spectre/v8_0_1/lp5mos/models/dio/dsaa_qp1.scs
Reading file:  /projects/bics/designkits/xfab/xp018/cadence/v8_0/spectre/v8_0_1/lp5mos/models/dio/dsb.scs
Reading file:  /projects/bics/designkits/xfab/xp018/cadence/v8_0/spectre/v8_0_1/lp5mos/models/dio/dsba.scs
Reading file:  /projects/bics/designkits/xfab/xp018/cadence/v8_0/spectre/v8_0_1/lp5mos/models/dio/dsba_qp1.scs
Reading file:  /projects/bics/designkits/xfab/xp018/cadence/v8_0/spectre/v8_0_1/lp5mos/models/dio/dndd.scs
Reading file:  /projects/bics/designkits/xfab/xp018/cadence/v8_0/spectre/v8_0_1/lp5mos/models/dio/dpdddnw.scs
Reading file:  /projects/bics/designkits/xfab/xp018/cadence/v8_0/spectre/v8_0_1/lp5mos/models/dio/dpdddnw_esd.scs
Reading file:  /projects/bics/designkits/xfab/xp018/cadence/v8_0/spectre/v8_0_1/lp5mos/models/dio/dpddipdnw_esd.scs
Reading file:  /projects/bics/designkits/xfab/xp018/cadence/v8_0/spectre/v8_0_1/lp5mos/models/dio/dnddpb.scs
Reading file:  /projects/bics/designkits/xfab/xp018/cadence/v8_0/spectre/v8_0_1/lp5mos/models/dio/dvdnw.scs
Reading file:  /projects/bics/designkits/xfab/xp018/cadence/v8_0/spectre/v8_0_1/lp5mos/models/dio/dvdnw_esd.scs
Reading file:  /projects/bics/designkits/xfab/xp018/cadence/v8_0/spectre/v8_0_1/lp5mos/models/dio/ddpbvdnw.scs
Reading file:  /projects/bics/designkits/xfab/xp018/cadence/v8_0/spectre/v8_0_1/lp5mos/models/dio/dpd2dnw.scs
Reading file:  /projects/bics/designkits/xfab/xp018/cadence/v8_0/spectre/v8_0_1/lp5mos/models/dio/dndddpb.scs
Reading file:  /projects/bics/designkits/xfab/xp018/cadence/v8_0/spectre/v8_0_1/lp5mos/models/dio/dpddvdnw_esd.scs
Reading file:  /projects/bics/designkits/xfab/xp018/cadence/v8_0/spectre/v8_0_1/lp5mos/models/dio/dpburvdnw.scs
Reading file:  /projects/bics/designkits/xfab/xp018/cadence/v8_0/spectre/v8_0_1/lp5mos/models/dio/dpddvdnw.scs
Reading file:  /projects/bics/designkits/xfab/xp018/cadence/v8_0/spectre/v8_0_1/lp5mos/models/dio/dpddipvdnw_esd.scs
Reading file:  /projects/bics/designkits/xfab/xp018/cadence/v8_0/spectre/v8_0_1/lp5mos/models/dio/dn5nm.scs
Reading file:  /projects/bics/designkits/xfab/xp018/cadence/v8_0/spectre/v8_0_1/lp5mos/models/dio/dp5pm.scs
Reading file:  /projects/bics/designkits/xfab/xp018/cadence/v8_0/spectre/v8_0_1/lp5mos/models/dio/dza_a.scs
Reading file:  /projects/bics/designkits/xfab/xp018/cadence/v8_0/spectre/v8_0_1/lp5mos/models/dio/dza_b.scs
Reading file:  /projects/bics/designkits/xfab/xp018/cadence/v8_0/spectre/v8_0_1/lp5mos/models/dio/dza_d.scs
Reading file:  /projects/bics/designkits/xfab/xp018/cadence/v8_0/spectre/v8_0_1/lp5mos/models/dio/dza_m.scs
Reading file:  /projects/bics/designkits/xfab/xp018/cadence/v8_0/spectre/v8_0_1/lp5mos/models/dio/dzb_a.scs
Reading file:  /projects/bics/designkits/xfab/xp018/cadence/v8_0/spectre/v8_0_1/lp5mos/models/dio/dzb_b.scs
Reading file:  /projects/bics/designkits/xfab/xp018/cadence/v8_0/spectre/v8_0_1/lp5mos/models/dio/dzb_d.scs
Reading file:  /projects/bics/designkits/xfab/xp018/cadence/v8_0/spectre/v8_0_1/lp5mos/models/dio/dzb_m.scs
Reading file:  /projects/bics/designkits/xfab/xp018/cadence/v8_0/spectre/v8_0_1/lp5mos/models/dio/dzc.scs
Reading file:  /projects/bics/designkits/xfab/xp018/cadence/v8_0/spectre/v8_0_1/lp5mos/models/dio/ddnwnvm.scs
Reading file:  /projects/bics/designkits/xfab/xp018/cadence/v8_0/spectre/v8_0_1/lp5mos/models/dio/dipdnwnvm.scs
Reading file:  /projects/bics/designkits/xfab/xp018/cadence/v8_0/spectre/v8_0_1/lp5mos/models/dio/dpdnwnvm.scs
Reading file:  /projects/bics/designkits/xfab/xp018/cadence/v8_0/spectre/v8_0_1/lp5mos/models/dio/dpsdnwnvm.scs
Reading file:  /projects/bics/designkits/xfab/xp018/cadence/v8_0/spectre/v8_0_1/lp5mos/models/dio/dpsdnwmv.scs
Reading file:  /projects/bics/designkits/xfab/xp018/cadence/v8_0/spectre/v8_0_1/lp5mos/models/dio/dn5ps.scs
Reading file:  /projects/bics/designkits/xfab/xp018/cadence/v8_0/spectre/v8_0_1/lp5mos/mos.scs
Reading file:  /projects/bics/designkits/xfab/xp018/cadence/v8_0/spectre/v8_0_1/lp5mos/models/mos/tm_mos.scs
Reading file:  /projects/bics/designkits/xfab/xp018/cadence/v8_0/spectre/v8_0_1/lp5mos/models/mos/ne.scs
Reading file:  /projects/bics/designkits/xfab/xp018/cadence/v8_0/spectre/v8_0_1/lp5mos/models/mos/pe.scs
Reading file:  /projects/bics/designkits/xfab/xp018/cadence/v8_0/spectre/v8_0_1/lp5mos/models/mos/pe_5.scs
Reading file:  /projects/bics/designkits/xfab/xp018/cadence/v8_0/spectre/v8_0_1/lp5mos/models/mos/nn.scs
Reading file:  /projects/bics/designkits/xfab/xp018/cadence/v8_0/spectre/v8_0_1/lp5mos/models/mos/nei.scs
Reading file:  /projects/bics/designkits/xfab/xp018/cadence/v8_0/spectre/v8_0_1/lp5mos/models/mos/nei_m_6.scs
Reading file:  /projects/bics/designkits/xfab/xp018/cadence/v8_0/spectre/v8_0_1/lp5mos/models/mos/nei_a_6.scs
Reading file:  /projects/bics/designkits/xfab/xp018/cadence/v8_0/spectre/v8_0_1/lp5mos/models/mos/nei_b_6.scs
Reading file:  /projects/bics/designkits/xfab/xp018/cadence/v8_0/spectre/v8_0_1/lp5mos/models/mos/nei_d_6.scs
Reading file:  /projects/bics/designkits/xfab/xp018/cadence/v8_0/spectre/v8_0_1/lp5mos/models/mos/pei.scs
Reading file:  /projects/bics/designkits/xfab/xp018/cadence/v8_0/spectre/v8_0_1/lp5mos/models/mos/pei_m_5.scs
Reading file:  /projects/bics/designkits/xfab/xp018/cadence/v8_0/spectre/v8_0_1/lp5mos/models/mos/pei_a_5.scs
Reading file:  /projects/bics/designkits/xfab/xp018/cadence/v8_0/spectre/v8_0_1/lp5mos/models/mos/pei_b_5.scs
Reading file:  /projects/bics/designkits/xfab/xp018/cadence/v8_0/spectre/v8_0_1/lp5mos/models/mos/pei_d_5.scs
Reading file:  /projects/bics/designkits/xfab/xp018/cadence/v8_0/spectre/v8_0_1/lp5mos/models/mos/pei_n_5.scs
Reading file:  /projects/bics/designkits/xfab/xp018/cadence/v8_0/spectre/v8_0_1/lp5mos/models/mos/nel.scs
Reading file:  /projects/bics/designkits/xfab/xp018/cadence/v8_0/spectre/v8_0_1/lp5mos/models/mos/pel.scs
Reading file:  /projects/bics/designkits/xfab/xp018/cadence/v8_0/spectre/v8_0_1/lp5mos/models/mos/pel_5.scs
Reading file:  /projects/bics/designkits/xfab/xp018/cadence/v8_0/spectre/v8_0_1/lp5mos/models/mos/neli.scs
Reading file:  /projects/bics/designkits/xfab/xp018/cadence/v8_0/spectre/v8_0_1/lp5mos/models/mos/neli_m_6.scs
Reading file:  /projects/bics/designkits/xfab/xp018/cadence/v8_0/spectre/v8_0_1/lp5mos/models/mos/neli_a_6.scs
Reading file:  /projects/bics/designkits/xfab/xp018/cadence/v8_0/spectre/v8_0_1/lp5mos/models/mos/neli_b_6.scs
Reading file:  /projects/bics/designkits/xfab/xp018/cadence/v8_0/spectre/v8_0_1/lp5mos/models/mos/neli_d_6.scs
Reading file:  /projects/bics/designkits/xfab/xp018/cadence/v8_0/spectre/v8_0_1/lp5mos/models/mos/neli_n_6.scs
Reading file:  /projects/bics/designkits/xfab/xp018/cadence/v8_0/spectre/v8_0_1/lp5mos/models/mos/peli.scs
Reading file:  /projects/bics/designkits/xfab/xp018/cadence/v8_0/spectre/v8_0_1/lp5mos/models/mos/peli_m_5.scs
Reading file:  /projects/bics/designkits/xfab/xp018/cadence/v8_0/spectre/v8_0_1/lp5mos/models/mos/peli_a_5.scs
Reading file:  /projects/bics/designkits/xfab/xp018/cadence/v8_0/spectre/v8_0_1/lp5mos/models/mos/peli_b_5.scs
Reading file:  /projects/bics/designkits/xfab/xp018/cadence/v8_0/spectre/v8_0_1/lp5mos/models/mos/peli_d_5.scs
Reading file:  /projects/bics/designkits/xfab/xp018/cadence/v8_0/spectre/v8_0_1/lp5mos/models/mos/peli_n_5.scs
Reading file:  /projects/bics/designkits/xfab/xp018/cadence/v8_0/spectre/v8_0_1/lp5mos/models/mos/nesvt.scs
Reading file:  /projects/bics/designkits/xfab/xp018/cadence/v8_0/spectre/v8_0_1/lp5mos/models/mos/nesvti.scs
Reading file:  /projects/bics/designkits/xfab/xp018/cadence/v8_0/spectre/v8_0_1/lp5mos/models/mos/nesvti_m_6.scs
Reading file:  /projects/bics/designkits/xfab/xp018/cadence/v8_0/spectre/v8_0_1/lp5mos/models/mos/nesvti_a_6.scs
Reading file:  /projects/bics/designkits/xfab/xp018/cadence/v8_0/spectre/v8_0_1/lp5mos/models/mos/nesvti_b_6.scs
Reading file:  /projects/bics/designkits/xfab/xp018/cadence/v8_0/spectre/v8_0_1/lp5mos/models/mos/nesvti_d_6.scs
Reading file:  /projects/bics/designkits/xfab/xp018/cadence/v8_0/spectre/v8_0_1/lp5mos/models/mos/nesvti_n_6.scs
Reading file:  /projects/bics/designkits/xfab/xp018/cadence/v8_0/spectre/v8_0_1/lp5mos/models/mos/pesvt.scs
Reading file:  /projects/bics/designkits/xfab/xp018/cadence/v8_0/spectre/v8_0_1/lp5mos/models/mos/pesvt_5.scs
Reading file:  /projects/bics/designkits/xfab/xp018/cadence/v8_0/spectre/v8_0_1/lp5mos/models/mos/pesvti.scs
Reading file:  /projects/bics/designkits/xfab/xp018/cadence/v8_0/spectre/v8_0_1/lp5mos/models/mos/pesvti_m_5.scs
Reading file:  /projects/bics/designkits/xfab/xp018/cadence/v8_0/spectre/v8_0_1/lp5mos/models/mos/pesvti_a_5.scs
Reading file:  /projects/bics/designkits/xfab/xp018/cadence/v8_0/spectre/v8_0_1/lp5mos/models/mos/pesvti_b_5.scs
Reading file:  /projects/bics/designkits/xfab/xp018/cadence/v8_0/spectre/v8_0_1/lp5mos/models/mos/pesvti_d_5.scs
Reading file:  /projects/bics/designkits/xfab/xp018/cadence/v8_0/spectre/v8_0_1/lp5mos/models/mos/pesvti_n_5.scs
Reading file:  /projects/bics/designkits/xfab/xp018/cadence/v8_0/spectre/v8_0_1/lp5mos/models/mos/nd5.scs
Reading file:  /projects/bics/designkits/xfab/xp018/cadence/v8_0/spectre/v8_0_1/lp5mos/models/mos/nd5_mos1.scs
Reading file:  /projects/bics/designkits/xfab/xp018/cadence/v8_0/spectre/v8_0_1/lp5mos/models/mos/nd5_mos2.scs
Reading file:  /projects/bics/designkits/xfab/xp018/cadence/v8_0/spectre/v8_0_1/lp5mos/models/mos/nd5i.scs
Reading file:  /projects/bics/designkits/xfab/xp018/cadence/v8_0/spectre/v8_0_1/lp5mos/models/mos/nd5i_mos1.scs
Reading file:  /projects/bics/designkits/xfab/xp018/cadence/v8_0/spectre/v8_0_1/lp5mos/models/mos/nd5i_mos2.scs
Reading file:  /projects/bics/designkits/xfab/xp018/cadence/v8_0/spectre/v8_0_1/lp5mos/models/mos/nd5i_m_6.scs
Reading file:  /projects/bics/designkits/xfab/xp018/cadence/v8_0/spectre/v8_0_1/lp5mos/models/mos/nd5i_a_6.scs
Reading file:  /projects/bics/designkits/xfab/xp018/cadence/v8_0/spectre/v8_0_1/lp5mos/models/mos/nd5i_b_6.scs
Reading file:  /projects/bics/designkits/xfab/xp018/cadence/v8_0/spectre/v8_0_1/lp5mos/models/mos/nd5i_d_6.scs
Reading file:  /projects/bics/designkits/xfab/xp018/cadence/v8_0/spectre/v8_0_1/lp5mos/models/mos/nn5.scs
Reading file:  /projects/bics/designkits/xfab/xp018/cadence/v8_0/spectre/v8_0_1/lp5mos/models/mos/nn5_jf.scs
Reading file:  /projects/bics/designkits/xfab/xp018/cadence/v8_0/spectre/v8_0_1/lp5mos/models/mos/ne5.scs
Reading file:  /projects/bics/designkits/xfab/xp018/cadence/v8_0/spectre/v8_0_1/lp5mos/models/mos/pe5.scs
Reading file:  /projects/bics/designkits/xfab/xp018/cadence/v8_0/spectre/v8_0_1/lp5mos/models/mos/pe5_5.scs
Reading file:  /projects/bics/designkits/xfab/xp018/cadence/v8_0/spectre/v8_0_1/lp5mos/models/mos/ne5i.scs
Reading file:  /projects/bics/designkits/xfab/xp018/cadence/v8_0/spectre/v8_0_1/lp5mos/models/mos/ne5i_m_6.scs
Reading file:  /projects/bics/designkits/xfab/xp018/cadence/v8_0/spectre/v8_0_1/lp5mos/models/mos/ne5i_a_6.scs
Reading file:  /projects/bics/designkits/xfab/xp018/cadence/v8_0/spectre/v8_0_1/lp5mos/models/mos/ne5i_b_6.scs
Reading file:  /projects/bics/designkits/xfab/xp018/cadence/v8_0/spectre/v8_0_1/lp5mos/models/mos/ne5i_d_6.scs
Reading file:  /projects/bics/designkits/xfab/xp018/cadence/v8_0/spectre/v8_0_1/lp5mos/models/mos/pe5i.scs
Reading file:  /projects/bics/designkits/xfab/xp018/cadence/v8_0/spectre/v8_0_1/lp5mos/models/mos/pe5i_m_5.scs
Reading file:  /projects/bics/designkits/xfab/xp018/cadence/v8_0/spectre/v8_0_1/lp5mos/models/mos/pe5i_a_5.scs
Reading file:  /projects/bics/designkits/xfab/xp018/cadence/v8_0/spectre/v8_0_1/lp5mos/models/mos/pe5i_b_5.scs
Reading file:  /projects/bics/designkits/xfab/xp018/cadence/v8_0/spectre/v8_0_1/lp5mos/models/mos/pe5i_d_5.scs
Reading file:  /projects/bics/designkits/xfab/xp018/cadence/v8_0/spectre/v8_0_1/lp5mos/models/mos/pe5i_n_5.scs
Reading file:  /projects/bics/designkits/xfab/xp018/cadence/v8_0/spectre/v8_0_1/lp5mos/models/mos/nede.scs
Reading file:  /projects/bics/designkits/xfab/xp018/cadence/v8_0/spectre/v8_0_1/lp5mos/models/mos/nede_bjt.scs
Reading file:  /projects/bics/designkits/xfab/xp018/cadence/v8_0/spectre/v8_0_1/lp5mos/models/mos/neda.scs
Reading file:  /projects/bics/designkits/xfab/xp018/cadence/v8_0/spectre/v8_0_1/lp5mos/models/mos/neda_bjt.scs
Reading file:  /projects/bics/designkits/xfab/xp018/cadence/v8_0/spectre/v8_0_1/lp5mos/models/mos/nedb.scs
Reading file:  /projects/bics/designkits/xfab/xp018/cadence/v8_0/spectre/v8_0_1/lp5mos/models/mos/nedb_bjt.scs
Reading file:  /projects/bics/designkits/xfab/xp018/cadence/v8_0/spectre/v8_0_1/lp5mos/models/mos/nedc.scs
Reading file:  /projects/bics/designkits/xfab/xp018/cadence/v8_0/spectre/v8_0_1/lp5mos/models/mos/nedc_bjt.scs
Reading file:  /projects/bics/designkits/xfab/xp018/cadence/v8_0/spectre/v8_0_1/lp5mos/models/mos/nedd.scs
Reading file:  /projects/bics/designkits/xfab/xp018/cadence/v8_0/spectre/v8_0_1/lp5mos/models/mos/nedd_bjt.scs
Reading file:  /projects/bics/designkits/xfab/xp018/cadence/v8_0/spectre/v8_0_1/lp5mos/models/mos/pede.scs
Reading file:  /projects/bics/designkits/xfab/xp018/cadence/v8_0/spectre/v8_0_1/lp5mos/models/mos/pede_bjt.scs
Reading file:  /projects/bics/designkits/xfab/xp018/cadence/v8_0/spectre/v8_0_1/lp5mos/models/mos/peda.scs
Reading file:  /projects/bics/designkits/xfab/xp018/cadence/v8_0/spectre/v8_0_1/lp5mos/models/mos/peda_bjt.scs
Reading file:  /projects/bics/designkits/xfab/xp018/cadence/v8_0/spectre/v8_0_1/lp5mos/models/mos/pedb.scs
Reading file:  /projects/bics/designkits/xfab/xp018/cadence/v8_0/spectre/v8_0_1/lp5mos/models/mos/pedb_bjt.scs
Reading file:  /projects/bics/designkits/xfab/xp018/cadence/v8_0/spectre/v8_0_1/lp5mos/models/mos/pedc.scs
Reading file:  /projects/bics/designkits/xfab/xp018/cadence/v8_0/spectre/v8_0_1/lp5mos/models/mos/pedc_bjt.scs
Reading file:  /projects/bics/designkits/xfab/xp018/cadence/v8_0/spectre/v8_0_1/lp5mos/models/mos/pedd.scs
Reading file:  /projects/bics/designkits/xfab/xp018/cadence/v8_0/spectre/v8_0_1/lp5mos/models/mos/pedd_bjt.scs
Reading file:  /projects/bics/designkits/xfab/xp018/cadence/v8_0/spectre/v8_0_1/lp5mos/models/mos/nmma.scs
Reading file:  /projects/bics/designkits/xfab/xp018/cadence/v8_0/spectre/v8_0_1/lp5mos/models/mos/nmma_bjt.scs
Reading file:  /projects/bics/designkits/xfab/xp018/cadence/v8_0/spectre/v8_0_1/lp5mos/models/mos/nmmb.scs
Reading file:  /projects/bics/designkits/xfab/xp018/cadence/v8_0/spectre/v8_0_1/lp5mos/models/mos/nmmb_bjt.scs
Reading file:  /projects/bics/designkits/xfab/xp018/cadence/v8_0/spectre/v8_0_1/lp5mos/models/mos/nmb.scs
Reading file:  /projects/bics/designkits/xfab/xp018/cadence/v8_0/spectre/v8_0_1/lp5mos/models/mos/nmb_bjt.scs
Reading file:  /projects/bics/designkits/xfab/xp018/cadence/v8_0/spectre/v8_0_1/lp5mos/models/mos/nmmc.scs
Reading file:  /projects/bics/designkits/xfab/xp018/cadence/v8_0/spectre/v8_0_1/lp5mos/models/mos/nmmc_bjt.scs
Reading file:  /projects/bics/designkits/xfab/xp018/cadence/v8_0/spectre/v8_0_1/lp5mos/models/mos/nmc.scs
Reading file:  /projects/bics/designkits/xfab/xp018/cadence/v8_0/spectre/v8_0_1/lp5mos/models/mos/nmc_bjt.scs
Reading file:  /projects/bics/designkits/xfab/xp018/cadence/v8_0/spectre/v8_0_1/lp5mos/models/mos/pmma.scs
Reading file:  /projects/bics/designkits/xfab/xp018/cadence/v8_0/spectre/v8_0_1/lp5mos/models/mos/pmma_bjt.scs
Reading file:  /projects/bics/designkits/xfab/xp018/cadence/v8_0/spectre/v8_0_1/lp5mos/models/mos/pmmb.scs
Reading file:  /projects/bics/designkits/xfab/xp018/cadence/v8_0/spectre/v8_0_1/lp5mos/models/mos/pmmb_bjt.scs
Reading file:  /projects/bics/designkits/xfab/xp018/cadence/v8_0/spectre/v8_0_1/lp5mos/models/mos/pmb.scs
Reading file:  /projects/bics/designkits/xfab/xp018/cadence/v8_0/spectre/v8_0_1/lp5mos/models/mos/pmb_bjt.scs
Reading file:  /projects/bics/designkits/xfab/xp018/cadence/v8_0/spectre/v8_0_1/lp5mos/models/mos/pmmc.scs
Reading file:  /projects/bics/designkits/xfab/xp018/cadence/v8_0/spectre/v8_0_1/lp5mos/models/mos/pmmc_bjt.scs
Reading file:  /projects/bics/designkits/xfab/xp018/cadence/v8_0/spectre/v8_0_1/lp5mos/models/mos/pmc.scs
Reading file:  /projects/bics/designkits/xfab/xp018/cadence/v8_0/spectre/v8_0_1/lp5mos/models/mos/pmc_bjt.scs
Reading file:  /projects/bics/designkits/xfab/xp018/cadence/v8_0/spectre/v8_0_1/lp5mos/models/mos/nhva.scs
Reading file:  /projects/bics/designkits/xfab/xp018/cadence/v8_0/spectre/v8_0_1/lp5mos/models/mos/nhva_bjt.scs
Reading file:  /projects/bics/designkits/xfab/xp018/cadence/v8_0/spectre/v8_0_1/lp5mos/models/mos/nhvb.scs
Reading file:  /projects/bics/designkits/xfab/xp018/cadence/v8_0/spectre/v8_0_1/lp5mos/models/mos/nhvb_bjt.scs
Reading file:  /projects/bics/designkits/xfab/xp018/cadence/v8_0/spectre/v8_0_1/lp5mos/models/mos/phva.scs
Reading file:  /projects/bics/designkits/xfab/xp018/cadence/v8_0/spectre/v8_0_1/lp5mos/models/mos/phva_bjt.scs
Reading file:  /projects/bics/designkits/xfab/xp018/cadence/v8_0/spectre/v8_0_1/lp5mos/models/mos/phvb.scs
Reading file:  /projects/bics/designkits/xfab/xp018/cadence/v8_0/spectre/v8_0_1/lp5mos/models/mos/phvb_bjt.scs
Reading file:  /projects/bics/designkits/xfab/xp018/cadence/v8_0/spectre/v8_0_1/lp5mos/models/mos/ndia.scs
Reading file:  /projects/bics/designkits/xfab/xp018/cadence/v8_0/spectre/v8_0_1/lp5mos/models/mos/ndia_bjt.scs
Reading file:  /projects/bics/designkits/xfab/xp018/cadence/v8_0/spectre/v8_0_1/lp5mos/models/mos/ndib.scs
Reading file:  /projects/bics/designkits/xfab/xp018/cadence/v8_0/spectre/v8_0_1/lp5mos/models/mos/ndib_bjt.scs
Reading file:  /projects/bics/designkits/xfab/xp018/cadence/v8_0/spectre/v8_0_1/lp5mos/res.scs
Reading file:  /projects/bics/designkits/xfab/xp018/cadence/v8_0/spectre/v8_0_1/lp5mos/models/res/tm_res.scs
Reading file:  /projects/bics/designkits/xfab/xp018/cadence/v8_0/spectre/v8_0_1/lp5mos/models/res/rdn.scs
Reading file:  /projects/bics/designkits/xfab/xp018/cadence/v8_0/spectre/v8_0_1/lp5mos/models/res/rdp.scs
Reading file:  /projects/bics/designkits/xfab/xp018/cadence/v8_0/spectre/v8_0_1/lp5mos/models/res/rnw.scs
Reading file:  /projects/bics/designkits/xfab/xp018/cadence/v8_0/spectre/v8_0_1/lp5mos/models/res/rnw_scr.scs
Reading file:  /projects/bics/designkits/xfab/xp018/cadence/v8_0/spectre/v8_0_1/lp5mos/models/res/rdn5.scs
Reading file:  /projects/bics/designkits/xfab/xp018/cadence/v8_0/spectre/v8_0_1/lp5mos/models/res/rdn5_dpc.scs
Reading file:  /projects/bics/designkits/xfab/xp018/cadence/v8_0/spectre/v8_0_1/lp5mos/models/res/rdp5.scs
Reading file:  /projects/bics/designkits/xfab/xp018/cadence/v8_0/spectre/v8_0_1/lp5mos/models/res/rnw5.scs
Reading file:  /projects/bics/designkits/xfab/xp018/cadence/v8_0/spectre/v8_0_1/lp5mos/models/res/rnw5_scr.scs
Reading file:  /projects/bics/designkits/xfab/xp018/cadence/v8_0/spectre/v8_0_1/lp5mos/models/res/rdnwmv.scs
Reading file:  /projects/bics/designkits/xfab/xp018/cadence/v8_0/spectre/v8_0_1/lp5mos/models/res/rnp1.scs
Reading file:  /projects/bics/designkits/xfab/xp018/cadence/v8_0/spectre/v8_0_1/lp5mos/models/res/rnp1_3.scs
Reading file:  /projects/bics/designkits/xfab/xp018/cadence/v8_0/spectre/v8_0_1/lp5mos/models/res/rpp1.scs
Reading file:  /projects/bics/designkits/xfab/xp018/cadence/v8_0/spectre/v8_0_1/lp5mos/models/res/rpp1_3.scs
Reading file:  /projects/bics/designkits/xfab/xp018/cadence/v8_0/spectre/v8_0_1/lp5mos/models/res/rpp1s.scs
Reading file:  /projects/bics/designkits/xfab/xp018/cadence/v8_0/spectre/v8_0_1/lp5mos/models/res/rpp1s_3.scs
Reading file:  /projects/bics/designkits/xfab/xp018/cadence/v8_0/spectre/v8_0_1/lp5mos/models/res/rnp1h.scs
Reading file:  /projects/bics/designkits/xfab/xp018/cadence/v8_0/spectre/v8_0_1/lp5mos/models/res/rnp1h_3.scs
Reading file:  /projects/bics/designkits/xfab/xp018/cadence/v8_0/spectre/v8_0_1/lp5mos/models/res/rpp1k1.scs
Reading file:  /projects/bics/designkits/xfab/xp018/cadence/v8_0/spectre/v8_0_1/lp5mos/models/res/rpp1k1_3.scs
Reading file:  /projects/bics/designkits/xfab/xp018/cadence/v8_0/spectre/v8_0_1/lp5mos/models/res/rm1.scs
Reading file:  /projects/bics/designkits/xfab/xp018/cadence/v8_0/spectre/v8_0_1/lp5mos/models/res/rm2.scs
Reading file:  /projects/bics/designkits/xfab/xp018/cadence/v8_0/spectre/v8_0_1/lp5mos/models/res/rm3.scs
Reading file:  /projects/bics/designkits/xfab/xp018/cadence/v8_0/spectre/v8_0_1/lp5mos/models/res/rm4.scs
Reading file:  /projects/bics/designkits/xfab/xp018/cadence/v8_0/spectre/v8_0_1/lp5mos/models/res/rm5.scs
Reading file:  /projects/bics/designkits/xfab/xp018/cadence/v8_0/spectre/v8_0_1/lp5mos/models/res/rmtp.scs
Reading file:  /projects/bics/designkits/xfab/xp018/cadence/v8_0/spectre/v8_0_1/lp5mos/models/res/rmtpl.scs
Reading file:  /projects/bics/designkits/xfab/xp018/cadence/v8_0/spectre/v8_0_1/lp5mos/models/res/rctdn.scs
Reading file:  /projects/bics/designkits/xfab/xp018/cadence/v8_0/spectre/v8_0_1/lp5mos/models/res/rctdp.scs
Reading file:  /projects/bics/designkits/xfab/xp018/cadence/v8_0/spectre/v8_0_1/lp5mos/models/res/rsildn.scs
Reading file:  /projects/bics/designkits/xfab/xp018/cadence/v8_0/spectre/v8_0_1/lp5mos/models/res/rsildp.scs
Reading file:  /projects/bics/designkits/xfab/xp018/cadence/v8_0/spectre/v8_0_1/lp5mos/models/res/rctp1.scs
Reading file:  /projects/bics/designkits/xfab/xp018/cadence/v8_0/spectre/v8_0_1/lp5mos/models/res/rsilnp1.scs
Reading file:  /projects/bics/designkits/xfab/xp018/cadence/v8_0/spectre/v8_0_1/lp5mos/models/res/rsilpp1.scs
Reading file:  /projects/bics/designkits/xfab/xp018/cadence/v8_0/spectre/v8_0_1/lp5mos/models/res/rsbdn.scs
Reading file:  /projects/bics/designkits/xfab/xp018/cadence/v8_0/spectre/v8_0_1/lp5mos/models/res/rsbdp.scs
Reading file:  /projects/bics/designkits/xfab/xp018/cadence/v8_0/spectre/v8_0_1/lp5mos/models/res/rsbdn5.scs
Reading file:  /projects/bics/designkits/xfab/xp018/cadence/v8_0/spectre/v8_0_1/lp5mos/models/res/rsbdp5.scs
Reading file:  /projects/bics/designkits/xfab/xp018/cadence/v8_0/spectre/v8_0_1/lp5mos/models/res/rsbnp1.scs
Reading file:  /projects/bics/designkits/xfab/xp018/cadence/v8_0/spectre/v8_0_1/lp5mos/models/res/rsbpp1.scs
Reading file:  /projects/bics/designkits/xfab/xp018/cadence/v8_0/spectre/v8_0_1/lp5mos/models/res/rsbpp1k1.scs
Reading file:  /projects/bics/designkits/xfab/xp018/cadence/v8_0/spectre/v8_0_1/lp5mos/models/res/pfuse.scs
Reading file:  /projects/bics/designkits/xfab/xp018/cadence/v8_0/spectre/v8_0_1/lp5mos/models/res/p_rm1.scs
Reading file:  /projects/bics/designkits/xfab/xp018/cadence/v8_0/spectre/v8_0_1/lp5mos/models/res/p_rm2.scs
Reading file:  /projects/bics/designkits/xfab/xp018/cadence/v8_0/spectre/v8_0_1/lp5mos/models/res/p_rm3.scs
Reading file:  /projects/bics/designkits/xfab/xp018/cadence/v8_0/spectre/v8_0_1/lp5mos/models/res/p_rm4.scs
Reading file:  /projects/bics/designkits/xfab/xp018/cadence/v8_0/spectre/v8_0_1/lp5mos/models/res/p_rm5.scs
Reading file:  /projects/bics/designkits/xfab/xp018/cadence/v8_0/spectre/v8_0_1/lp5mos/models/res/p_rmtp.scs
Reading file:  /projects/bics/designkits/xfab/xp018/cadence/v8_0/spectre/v8_0_1/lp5mos/models/res/p_rmtpl.scs
Reading file:  /projects/bics/designkits/xfab/xp018/cadence/v8_0/spectre/v8_0_1/lp5mos/models/res/p_rvia1.scs
Reading file:  /projects/bics/designkits/xfab/xp018/cadence/v8_0/spectre/v8_0_1/lp5mos/models/res/p_rvia2.scs
Reading file:  /projects/bics/designkits/xfab/xp018/cadence/v8_0/spectre/v8_0_1/lp5mos/models/res/p_rvia3.scs
Reading file:  /projects/bics/designkits/xfab/xp018/cadence/v8_0/spectre/v8_0_1/lp5mos/models/res/p_rvia4.scs
Reading file:  /projects/bics/designkits/xfab/xp018/cadence/v8_0/spectre/v8_0_1/lp5mos/models/res/p_rviatp.scs
Reading file:  /projects/bics/designkits/xfab/xp018/cadence/v8_0/spectre/v8_0_1/lp5mos/models/res/p_rviatpl.scs
Reading file:  /projects/bics/designkits/xfab/xp018/cadence/v8_0/spectre/v8_0_1/lp5mos/models/res/p_rctdn.scs
Reading file:  /projects/bics/designkits/xfab/xp018/cadence/v8_0/spectre/v8_0_1/lp5mos/models/res/p_rctdp.scs
Reading file:  /projects/bics/designkits/xfab/xp018/cadence/v8_0/spectre/v8_0_1/lp5mos/models/res/p_rctp1.scs
Reading file:  /projects/bics/designkits/xfab/xp018/cadence/v8_0/spectre/v8_0_1/lp5mos/models/res/p_rp1s.scs
Reading file:  /projects/bics/designkits/xfab/xp018/cadence/v8_0/spectre/v8_0_1/lp5mos/models/res/s_res.scs
Time for NDB Parsing: CPU = 334.386 ms, elapsed = 426.961 ms.
Time accumulated: CPU = 485.104 ms, elapsed = 426.967 ms.
Peak resident memory used = 95.7 Mbytes.

Time for Elaboration: CPU = 25.856 ms, elapsed = 29.407 ms.
Time accumulated: CPU = 511.137 ms, elapsed = 456.563 ms.
Peak resident memory used = 104 Mbytes.


Notice from spectre during hierarchy flattening.
    The value 'psf' specified for the 'checklimitdest' option will no longer be supported in future releases. Use 'spectre -h' to see other recommended values for the 'checklimitdest' option.

 Start ADE Session ID: 8DNtomzWQTygTxo8

Time for EDB Visiting: CPU = 1.458 ms, elapsed = 1.45793 ms.
Time accumulated: CPU = 512.755 ms, elapsed = 458.179 ms.
Peak resident memory used = 105 Mbytes.


Warning from spectre during initial setup.
    WARNING (CMI-2441): I56.M5.m1: Instance length width or area does not fit the given lmax-lmin, wmax-wmin or areamax-areamin range for the model 'I56.M4.pemod'.
    WARNING (CMI-2441): I56.M4.m1: Instance length width or area does not fit the given lmax-lmin, wmax-wmin or areamax-areamin range for the model 'I56.M4.pemod'.
    WARNING (CMI-2441): I56.M3.m1: Instance length width or area does not fit the given lmax-lmin, wmax-wmin or areamax-areamin range for the model 'M4.nemod'.
    WARNING (CMI-2441): I56.M2.m1: Instance length width or area does not fit the given lmax-lmin, wmax-wmin or areamax-areamin range for the model 'M4.nemod'.
    WARNING (CMI-2441): M2.m1: Instance length width or area does not fit the given lmax-lmin, wmax-wmin or areamax-areamin range for the model 'M4.nemod'.
        Further occurrences of this warning will be suppressed.

Reading file:  /home/s5117909/Documents/thesis/sebastian_thesis_repo/processing/general_code/spike_train_output/st_1/81_hz/trial_1.pwl
Reading file:  /home/s5117909/Documents/thesis/sebastian_thesis_repo/processing/general_code/spike_train_output/st_2/401_hz/trial_1.pwl

Notice from spectre during initial setup.
    Multithreading is disabled due to the size of the design being too small.


Global user options:
         psfversion = 1.4.0
            vabstol = 1e-06
            iabstol = 1e-12
               temp = 27
               gmin = 1e-12
             rforce = 1
           maxnotes = 5
           maxwarns = 5
             digits = 5
               cols = 80
             pivrel = 0.001
           sensfile = ../../../../../Documents/thesis/sebastian_thesis_repo/processing/cadence_extraction/output_single_data/st1_81_hz__st2_401_hz__trial_1/psf/sens.output
     checklimitdest = psf
               save = allpub
             reltol = 0.001
               tnom = 27
             scalem = 1
              scale = 1

Scoped user options:

Circuit inventory:
              nodes 9
            bsim3v3 6     
          capacitor 1     
            vsource 6     

Analysis and control statement inventory:
               info 7     
               tran 1     

Output statements:
             .probe 0     
           .measure 0     
               save 1     

Design checks inventory:
          paramtest 1     


Notice from spectre during initial setup.
    Protected devices exist and are not included in the circuit inventory.
    Fast APS enabled.
    1 warning suppressed.

Time for parsing: CPU = 7.054 ms, elapsed = 11.632 ms.
Time accumulated: CPU = 519.94 ms, elapsed = 469.942 ms.
Peak resident memory used = 107 Mbytes.

~~~~~~~~~~~~~~~~~~~~~~
Pre-Simulation Summary
~~~~~~~~~~~~~~~~~~~~~~
   -   (Fast APS) Multi-threading. The recommended number of threads is 1, consider adding +mt=1 on command line.
~~~~~~~~~~~~~~~~~~~~~~

**********************************************
Transient Analysis `tran': time = (0 s -> 1 s)
**********************************************

Notice from spectre during IC analysis, during transient analysis `tran'.
    GminDC = 1 pS is large enough to noticeably affect the DC solution.
        dV(Vin) = -20.5827 mV
        Use the `gmin_check' option to eliminate or expand this report.
Warning from spectre during IC analysis, during transient analysis `tran'.
    WARNING (CMI-2139): I56.M5.m1: The bulk-source junction current exceeds `imelt'.  The results computed by Spectre may be inaccurate because the junction current model has been linearized.
    WARNING (CMI-2144): I56.M5.m1: The bulk-source junction current exceeds `imax'.
    WARNING (CMI-2139): I56.M4.m1: The bulk-source junction current exceeds `imelt'.  The results computed by Spectre may be inaccurate because the junction current model has been linearized.
    WARNING (CMI-2144): I56.M4.m1: The bulk-source junction current exceeds `imax'.

DC simulation time: CPU = 914 us, elapsed = 915.051 us.

Opening the PSFXL file ../../../../../Documents/thesis/sebastian_thesis_repo/processing/cadence_extraction/output_single_data/st1_81_hz__st2_401_hz__trial_1/psf/tran.tran.tran ...
Important parameter values:
    start = 0 s
    outputstart = 0 s
    stop = 1 s
    step = 1 ms
    maxstep = 20 ms
    ic = all
    useprevic = no
    skipdc = no
    reltol = 1e-03
    abstol(V) = 1 uV
    abstol(I) = 1 pA
    temp = 27 C
    tnom = 27 C
    tempeffects = all
    errpreset = moderate
    method = traponly
    lteratio = 3.5
    relref = sigglobal
    cmin = 0 F
    gmin = 1 pS
    rabsshort = 1 mOhm


Notice from spectre during transient analysis `tran'.
    Multithreading is disabled due to the size of the design being too small.


Output and IC/nodeset summary:
                 save   7       (current)
                 save   9       (voltage)


Warning from spectre at time = 1 ms during transient analysis `tran'.
    WARNING (CMI-2139): I56.M5.m1: The bulk-source junction current exceeds `imelt'.  The results computed by Spectre may be inaccurate because the junction current model has been linearized.
    WARNING (CMI-2144): I56.M5.m1: The bulk-source junction current exceeds `imax'.
    WARNING (CMI-2139): I56.M4.m1: The bulk-source junction current exceeds `imelt'.  The results computed by Spectre may be inaccurate because the junction current model has been linearized.
    WARNING (CMI-2144): I56.M4.m1: The bulk-source junction current exceeds `imax'.
Notice from spectre at time = 2.10833 ms during transient analysis `tran'.
    Found trapezoidal ringing on node net1.
Notice from spectre at time = 2.10835 ms during transient analysis `tran'.
    Found trapezoidal ringing on node net1.
Notice from spectre at time = 2.1084 ms during transient analysis `tran'.
    Found trapezoidal ringing on node net1.
Notice from spectre at time = 2.42917 ms during transient analysis `tran'.
    Found trapezoidal ringing on node I56.net1.
Notice from spectre at time = 2.68666 ms during transient analysis `tran'.
    Found trapezoidal ringing on node I56.net1.
        Further occurrences of this notice will be suppressed.

    tran: time = 25.05 ms    (2.51 %), step = 72.28 us    (7.23 m%)
    tran: time = 75 ms        (7.5 %), step = 3.65 us      (365 u%)
    tran: time = 125.3 ms    (12.5 %), step = 2.998 ms     (300 m%)
    tran: time = 175.6 ms    (17.6 %), step = 1.03 ms      (103 m%)
    tran: time = 225.2 ms    (22.5 %), step = 706.1 us    (70.6 m%)
    tran: time = 275.1 ms    (27.5 %), step = 237.2 us    (23.7 m%)
    tran: time = 326.3 ms    (32.6 %), step = 1.51 ms      (151 m%)
    tran: time = 375 ms      (37.5 %), step = 377.6 us    (37.8 m%)
    tran: time = 425.2 ms    (42.5 %), step = 377.6 us    (37.8 m%)
    tran: time = 475 ms      (47.5 %), step = 94.39 us    (9.44 m%)
    tran: time = 543.4 ms    (54.3 %), step = 20 ms           (2 %)
    tran: time = 583.4 ms    (58.3 %), step = 20 ms           (2 %)
    tran: time = 643.4 ms    (64.3 %), step = 20 ms           (2 %)
    tran: time = 683.4 ms    (68.3 %), step = 20 ms           (2 %)
    tran: time = 743.4 ms    (74.3 %), step = 20 ms           (2 %)
    tran: time = 783.4 ms    (78.3 %), step = 20 ms           (2 %)
    tran: time = 843.4 ms    (84.3 %), step = 20 ms           (2 %)
    tran: time = 883.4 ms    (88.3 %), step = 20 ms           (2 %)
    tran: time = 943.4 ms    (94.3 %), step = 20 ms           (2 %)
    tran: time = 983.4 ms    (98.3 %), step = 20 ms           (2 %)
Number of accepted tran steps =             17344

Notice from spectre during transient analysis `tran'.
    Trapezoidal ringing is detected during tran analysis.
        Please use method=trap for better results and performance.


Maximum value achieved for any signal of each quantity: 
V: V(vpre) = 3.6 V
I: I(V1:p) = 955.9 mA
If your circuit contains signals of the same quantity that are vastly different in size (such as high voltage circuitry combined with low voltage control circuitry), you should consider specifying global option `bin_relref=yes'.

~~~~~~~~~~~~~~~~~~~~~~~~~~~~~~~~~
Post-Transient Simulation Summary
~~~~~~~~~~~~~~~~~~~~~~~~~~~~~~~~~
   -   Features that may significantly slowing down simulation
          iprobe = 11.76 % of total equations
~~~~~~~~~~~~~~~~~~~~~~~~~~~~~~~~~


During simulation, the CPU load for active processors is :
         0 (17.1 %)      1 (23.7 %)      2 (64.3 %)      3 (20.0 %)
         4 (9.8 %)       5 (24.3 %)      6 (100.0 %)     7 (20.9 %)
         8 (75.9 %)      9 (39.1 %)     10 (16.1 %)     11 (15.9 %)
        Total: 427.2%
Initial condition solution time: CPU = 998 us, elapsed = 998.974 us.
Intrinsic tran analysis time:    CPU = 681.802 ms, elapsed = 694.45 ms.
Total time required for tran analysis `tran': CPU = 686.165 ms, elapsed = 705.797 ms, util. = 97.2%.
Time accumulated: CPU = 1.22181 s, elapsed = 1.2142 s.
Peak resident memory used = 121 Mbytes.


Notice from spectre.
    842 notices suppressed.

finalTimeOP: writing operating point information to rawfile.

Opening the PSF file ../../../../../Documents/thesis/sebastian_thesis_repo/processing/cadence_extraction/output_single_data/st1_81_hz__st2_401_hz__trial_1/psf/finalTimeOP.info ...
modelParameter: writing model parameter values to rawfile.

Opening the PSF file ../../../../../Documents/thesis/sebastian_thesis_repo/processing/cadence_extraction/output_single_data/st1_81_hz__st2_401_hz__trial_1/psf/modelParameter.info ...
element: writing instance parameter values to rawfile.

Opening the PSF file ../../../../../Documents/thesis/sebastian_thesis_repo/processing/cadence_extraction/output_single_data/st1_81_hz__st2_401_hz__trial_1/psf/element.info ...
outputParameter: writing output parameter values to rawfile.

Opening the PSF file ../../../../../Documents/thesis/sebastian_thesis_repo/processing/cadence_extraction/output_single_data/st1_81_hz__st2_401_hz__trial_1/psf/outputParameter.info ...
designParamVals: writing netlist parameters to rawfile.

Opening the PSFASCII file ../../../../../Documents/thesis/sebastian_thesis_repo/processing/cadence_extraction/output_single_data/st1_81_hz__st2_401_hz__trial_1/psf/designParamVals.info ...
primitives: writing primitives to rawfile.

Opening the PSFASCII file ../../../../../Documents/thesis/sebastian_thesis_repo/processing/cadence_extraction/output_single_data/st1_81_hz__st2_401_hz__trial_1/psf/primitives.info.primitives ...
subckts: writing subcircuits to rawfile.

Opening the PSFASCII file ../../../../../Documents/thesis/sebastian_thesis_repo/processing/cadence_extraction/output_single_data/st1_81_hz__st2_401_hz__trial_1/psf/subckts.info.subckts ...
Licensing Information:
Lic Summary:
[11:13:31.034329] Cdslmd servers:5280@lic009.workspace.rug.nl
[11:13:31.034352] Feature usage summary:
[11:13:31.034352] Virtuoso_Multi_mode_Simulation


Aggregate audit (11:13:31 AM, Tue May 19, 2026):
Time used: CPU = 1.25 s, elapsed = 1.27 s, util. = 98.6%.
Time spent in licensing: elapsed = 67.7 ms, percentage of total = 5.33%.
Peak memory used = 121 Mbytes.
Simulation started at: 11:13:29 AM, Tue May 19, 2026, ended at: 11:13:31 AM, Tue May 19, 2026, with elapsed time (wall clock): 1.27 s.
spectre completes with 0 errors, 13 warnings, and 15 notices.
