
Spectre (R) Circuit Simulator
Version 23.1.0.327.isr4 64bit -- 9 Dec 2023
Copyright (C) 1989-2023 Cadence Design Systems, Inc. All rights reserved worldwide. Cadence and Spectre are registered trademarks of Cadence Design Systems, Inc. All others are the property of their respective holders.

Includes RSA BSAFE(R) Cryptographic or Security Protocol Software from RSA Security, Inc.

User: s5117909   Host: bics02   HostID: 7F0101   PID: 1175
Memory  available: 107.9917 GB  physical: 135.0280 GB
Linux   : CentOS Linux release 7 (Core)
CPU Type: Intel(R) Xeon(R) Gold 6150 CPU @ 2.70GHz
All processors running at 2693.7 MHz
        Socket: Processors
        0:       0,  1,  2,  3,  4,  5,  6,  7,  8,  9
                10, 11
        
System load averages (1min, 5min, 15min) : 16.5 %, 14.3 %, 15.1 %
HPC is enabled
This is a virtual machine


Simulating `input.scs' on bics02 at 11:15:12 AM, Tue May 12, 2026 (process id: 1175).
Current working directory: /home/s5117909/simulation/dynapsetb1/spectre/schematic/netlist
Command line:
    /projects/bics/cadence/installs/SPECTRE231/tools.lnx86/bin/spectre  \
        -64 input.scs +escchars +log  \
        ../../../../../Documents/thesis/sebastian_thesis_repo/processing/cadence_extraction/output_data/10_hz_trial_2/psf/spectre.out  \
        +inter=mpsc +mpssession=spectre6_3953_13 -format psfxl -raw  \
        ../../../../../Documents/thesis/sebastian_thesis_repo/processing/cadence_extraction/output_data/10_hz_trial_2/psf  \
        +aps +mt +lqtimeout 900 -maxw 5 -maxn 5 -env ade  \
        +adespetkn=adespe
spectre pid = 1175

Licensing Information:
[11:15:12.084825] Configured Lic search path (22.01-s002): 5280@lic009.workspace.rug.nl

Licensing Information:
[11:15:12.297195] Periodic Lic check successful

Loading /projects/bics/cadence/installs/SPECTRE231/tools.lnx86/cmi/lib/64bit/5.0/libinfineon_sh.so ...
Loading /projects/bics/cadence/installs/SPECTRE231/tools.lnx86/cmi/lib/64bit/5.0/libphilips_I_sh.so ...
Loading /projects/bics/cadence/installs/SPECTRE231/tools.lnx86/cmi/lib/64bit/5.0/libphilips_sh.so ...
Loading /projects/bics/cadence/installs/SPECTRE231/tools.lnx86/cmi/lib/64bit/5.0/libsparam_sh.so ...
Loading /projects/bics/cadence/installs/SPECTRE231/tools.lnx86/cmi/lib/64bit/5.0/libstmodels_sh.so ...
Reading file:  /home/s5117909/simulation/dynapsetb1/spectre/schematic/netlist/input.scs
Reading file:  /projects/bics/cadence/installs/SPECTRE231/tools.lnx86/spectre/etc/configs/spectre.cfg
Reading file:  /home/s5117909/simulation/dynapsetb1/spectre/schematic/netlist/ade_e.scs
Reading file:  /projects/bics/designkits/xfab/xp018/cadence/v8_0/spectre/v8_0_1/lp5mos/config.scs
Reading file:  /projects/bics/designkits/xfab/xp018/cadence/v8_0/spectre/v8_0_1/lp5mos/param.scs
Reading file:  /projects/bics/designkits/xfab/xp018/cadence/v8_0/spectre/v8_0_1/lp5mos/bip.scs
Reading file:  /projects/bics/designkits/xfab/xp018/cadence/v8_0/spectre/v8_0_1/lp5mos/models/bip/tm_bip.scs
Reading file:  /projects/bics/designkits/xfab/xp018/cadence/v8_0/spectre/v8_0_1/lp5mos/models/bip/qpva.scs
Reading file:  /projects/bics/designkits/xfab/xp018/cadence/v8_0/spectre/v8_0_1/lp5mos/models/bip/qpvb.scs
Reading file:  /projects/bics/designkits/xfab/xp018/cadence/v8_0/spectre/v8_0_1/lp5mos/models/bip/qpvc.scs
Reading file:  /projects/bics/designkits/xfab/xp018/cadence/v8_0/spectre/v8_0_1/lp5mos/models/bip/qpva5.scs
Reading file:  /projects/bics/designkits/xfab/xp018/cadence/v8_0/spectre/v8_0_1/lp5mos/models/bip/qpvb5.scs
Reading file:  /projects/bics/designkits/xfab/xp018/cadence/v8_0/spectre/v8_0_1/lp5mos/models/bip/qpvc5.scs
Reading file:  /projects/bics/designkits/xfab/xp018/cadence/v8_0/spectre/v8_0_1/lp5mos/models/bip/qnva.scs
Reading file:  /projects/bics/designkits/xfab/xp018/cadence/v8_0/spectre/v8_0_1/lp5mos/models/bip/qnva5.scs
Reading file:  /projects/bics/designkits/xfab/xp018/cadence/v8_0/spectre/v8_0_1/lp5mos/models/bip/qnvb.scs
Reading file:  /projects/bics/designkits/xfab/xp018/cadence/v8_0/spectre/v8_0_1/lp5mos/models/bip/qpvh.scs
Reading file:  /projects/bics/designkits/xfab/xp018/cadence/v8_0/spectre/v8_0_1/lp5mos/models/bip/qpvhascr.scs
Reading file:  /projects/bics/designkits/xfab/xp018/cadence/v8_0/spectre/v8_0_1/lp5mos/models/bip/qnvc.scs
Reading file:  /projects/bics/designkits/xfab/xp018/cadence/v8_0/spectre/v8_0_1/lp5mos/models/bip/qnvca.scs
Reading file:  /projects/bics/designkits/xfab/xp018/cadence/v8_0/spectre/v8_0_1/lp5mos/models/bip/qnvcra.scs
Reading file:  /projects/bics/designkits/xfab/xp018/cadence/v8_0/spectre/v8_0_1/lp5mos/models/bip/qnvcrb.scs
Reading file:  /projects/bics/designkits/xfab/xp018/cadence/v8_0/spectre/v8_0_1/lp5mos/models/bip/qpv_pa.scs
Reading file:  /projects/bics/designkits/xfab/xp018/cadence/v8_0/spectre/v8_0_1/lp5mos/models/bip/qpv_pb.scs
Reading file:  /projects/bics/designkits/xfab/xp018/cadence/v8_0/spectre/v8_0_1/lp5mos/models/bip/qpv_pc.scs
Reading file:  /projects/bics/designkits/xfab/xp018/cadence/v8_0/spectre/v8_0_1/lp5mos/models/bip/qpv_pd.scs
Reading file:  /projects/bics/designkits/xfab/xp018/cadence/v8_0/spectre/v8_0_1/lp5mos/models/bip/qpv_pe.scs
Reading file:  /projects/bics/designkits/xfab/xp018/cadence/v8_0/spectre/v8_0_1/lp5mos/models/bip/qpv_pf.scs
Reading file:  /projects/bics/designkits/xfab/xp018/cadence/v8_0/spectre/v8_0_1/lp5mos/models/bip/qpv_pf2.scs
Reading file:  /projects/bics/designkits/xfab/xp018/cadence/v8_0/spectre/v8_0_1/lp5mos/models/bip/qpv_pg.scs
Reading file:  /projects/bics/designkits/xfab/xp018/cadence/v8_0/spectre/v8_0_1/lp5mos/models/bip/qnl_pa.scs
Reading file:  /projects/bics/designkits/xfab/xp018/cadence/v8_0/spectre/v8_0_1/lp5mos/models/bip/qnl_pb.scs
Reading file:  /projects/bics/designkits/xfab/xp018/cadence/v8_0/spectre/v8_0_1/lp5mos/models/bip/qpl_pa.scs
Reading file:  /projects/bics/designkits/xfab/xp018/cadence/v8_0/spectre/v8_0_1/lp5mos/models/bip/qpl_pb.scs
Reading file:  /projects/bics/designkits/xfab/xp018/cadence/v8_0/spectre/v8_0_1/lp5mos/models/bip/qpv_ndia.scs
Reading file:  /projects/bics/designkits/xfab/xp018/cadence/v8_0/spectre/v8_0_1/lp5mos/models/bip/qnv_ndia.scs
Reading file:  /projects/bics/designkits/xfab/xp018/cadence/v8_0/spectre/v8_0_1/lp5mos/models/bip/qpv_ndib.scs
Reading file:  /projects/bics/designkits/xfab/xp018/cadence/v8_0/spectre/v8_0_1/lp5mos/models/bip/qnv_ndib.scs
Reading file:  /projects/bics/designkits/xfab/xp018/cadence/v8_0/spectre/v8_0_1/lp5mos/models/bip/qpv_nhva.scs
Reading file:  /projects/bics/designkits/xfab/xp018/cadence/v8_0/spectre/v8_0_1/lp5mos/models/bip/qpv_nhvb.scs
Reading file:  /projects/bics/designkits/xfab/xp018/cadence/v8_0/spectre/v8_0_1/lp5mos/models/bip/qpv_phva.scs
Reading file:  /projects/bics/designkits/xfab/xp018/cadence/v8_0/spectre/v8_0_1/lp5mos/models/bip/qpv_phvb.scs
Reading file:  /projects/bics/designkits/xfab/xp018/cadence/v8_0/spectre/v8_0_1/lp5mos/cap.scs
Reading file:  /projects/bics/designkits/xfab/xp018/cadence/v8_0/spectre/v8_0_1/lp5mos/models/cap/tm_cap.scs
Reading file:  /projects/bics/designkits/xfab/xp018/cadence/v8_0/spectre/v8_0_1/lp5mos/models/cap/csandwt3.scs
Reading file:  /projects/bics/designkits/xfab/xp018/cadence/v8_0/spectre/v8_0_1/lp5mos/models/cap/csandwt4.scs
Reading file:  /projects/bics/designkits/xfab/xp018/cadence/v8_0/spectre/v8_0_1/lp5mos/models/cap/csandwt5.scs
Reading file:  /projects/bics/designkits/xfab/xp018/cadence/v8_0/spectre/v8_0_1/lp5mos/models/cap/csf2p.scs
Reading file:  /projects/bics/designkits/xfab/xp018/cadence/v8_0/spectre/v8_0_1/lp5mos/models/cap/csf3p.scs
Reading file:  /projects/bics/designkits/xfab/xp018/cadence/v8_0/spectre/v8_0_1/lp5mos/models/cap/csf3.scs
Reading file:  /projects/bics/designkits/xfab/xp018/cadence/v8_0/spectre/v8_0_1/lp5mos/models/cap/csf4.scs
Reading file:  /projects/bics/designkits/xfab/xp018/cadence/v8_0/spectre/v8_0_1/lp5mos/models/cap/csf5.scs
Reading file:  /projects/bics/designkits/xfab/xp018/cadence/v8_0/spectre/v8_0_1/lp5mos/models/cap/csft4.scs
Reading file:  /projects/bics/designkits/xfab/xp018/cadence/v8_0/spectre/v8_0_1/lp5mos/models/cap/csft5.scs
Reading file:  /projects/bics/designkits/xfab/xp018/cadence/v8_0/spectre/v8_0_1/lp5mos/models/cap/csft6.scs
Reading file:  /projects/bics/designkits/xfab/xp018/cadence/v8_0/spectre/v8_0_1/lp5mos/models/cap/csf3a.scs
Reading file:  /projects/bics/designkits/xfab/xp018/cadence/v8_0/spectre/v8_0_1/lp5mos/models/cap/csf4a.scs
Reading file:  /projects/bics/designkits/xfab/xp018/cadence/v8_0/spectre/v8_0_1/lp5mos/models/cap/csf5a.scs
Reading file:  /projects/bics/designkits/xfab/xp018/cadence/v8_0/spectre/v8_0_1/lp5mos/models/cap/csft4a.scs
Reading file:  /projects/bics/designkits/xfab/xp018/cadence/v8_0/spectre/v8_0_1/lp5mos/models/cap/csft5a.scs
Reading file:  /projects/bics/designkits/xfab/xp018/cadence/v8_0/spectre/v8_0_1/lp5mos/models/cap/csft6a.scs
Reading file:  /projects/bics/designkits/xfab/xp018/cadence/v8_0/spectre/v8_0_1/lp5mos/models/cap/cmm3.scs
Reading file:  /projects/bics/designkits/xfab/xp018/cadence/v8_0/spectre/v8_0_1/lp5mos/models/cap/cmm3t.scs
Reading file:  /projects/bics/designkits/xfab/xp018/cadence/v8_0/spectre/v8_0_1/lp5mos/models/cap/cmm4.scs
Reading file:  /projects/bics/designkits/xfab/xp018/cadence/v8_0/spectre/v8_0_1/lp5mos/models/cap/cmm4t.scs
Reading file:  /projects/bics/designkits/xfab/xp018/cadence/v8_0/spectre/v8_0_1/lp5mos/models/cap/cmm5.scs
Reading file:  /projects/bics/designkits/xfab/xp018/cadence/v8_0/spectre/v8_0_1/lp5mos/models/cap/cmm5t.scs
Reading file:  /projects/bics/designkits/xfab/xp018/cadence/v8_0/spectre/v8_0_1/lp5mos/models/cap/cmm6t.scs
Reading file:  /projects/bics/designkits/xfab/xp018/cadence/v8_0/spectre/v8_0_1/lp5mos/models/cap/cmmh3.scs
Reading file:  /projects/bics/designkits/xfab/xp018/cadence/v8_0/spectre/v8_0_1/lp5mos/models/cap/cmmh3t.scs
Reading file:  /projects/bics/designkits/xfab/xp018/cadence/v8_0/spectre/v8_0_1/lp5mos/models/cap/cmmh3l.scs
Reading file:  /projects/bics/designkits/xfab/xp018/cadence/v8_0/spectre/v8_0_1/lp5mos/models/cap/cmmh4.scs
Reading file:  /projects/bics/designkits/xfab/xp018/cadence/v8_0/spectre/v8_0_1/lp5mos/models/cap/cmmh4t.scs
Reading file:  /projects/bics/designkits/xfab/xp018/cadence/v8_0/spectre/v8_0_1/lp5mos/models/cap/cmmh4l.scs
Reading file:  /projects/bics/designkits/xfab/xp018/cadence/v8_0/spectre/v8_0_1/lp5mos/models/cap/cmmh5.scs
Reading file:  /projects/bics/designkits/xfab/xp018/cadence/v8_0/spectre/v8_0_1/lp5mos/models/cap/cmmh5t.scs
Reading file:  /projects/bics/designkits/xfab/xp018/cadence/v8_0/spectre/v8_0_1/lp5mos/models/cap/cmmh5l.scs
Reading file:  /projects/bics/designkits/xfab/xp018/cadence/v8_0/spectre/v8_0_1/lp5mos/models/cap/cmmh6t.scs
Reading file:  /projects/bics/designkits/xfab/xp018/cadence/v8_0/spectre/v8_0_1/lp5mos/models/cap/cmmh6l.scs
Reading file:  /projects/bics/designkits/xfab/xp018/cadence/v8_0/spectre/v8_0_1/lp5mos/models/cap/cdmm4.scs
Reading file:  /projects/bics/designkits/xfab/xp018/cadence/v8_0/spectre/v8_0_1/lp5mos/models/cap/cdmm4t.scs
Reading file:  /projects/bics/designkits/xfab/xp018/cadence/v8_0/spectre/v8_0_1/lp5mos/models/cap/cdmmh4.scs
Reading file:  /projects/bics/designkits/xfab/xp018/cadence/v8_0/spectre/v8_0_1/lp5mos/models/cap/cdmmh4t.scs
Reading file:  /projects/bics/designkits/xfab/xp018/cadence/v8_0/spectre/v8_0_1/lp5mos/models/cap/cdmm5.scs
Reading file:  /projects/bics/designkits/xfab/xp018/cadence/v8_0/spectre/v8_0_1/lp5mos/models/cap/cdmm5t.scs
Reading file:  /projects/bics/designkits/xfab/xp018/cadence/v8_0/spectre/v8_0_1/lp5mos/models/cap/cdmmh5.scs
Reading file:  /projects/bics/designkits/xfab/xp018/cadence/v8_0/spectre/v8_0_1/lp5mos/models/cap/cdmmh5t.scs
Reading file:  /projects/bics/designkits/xfab/xp018/cadence/v8_0/spectre/v8_0_1/lp5mos/models/cap/cdmm6t.scs
Reading file:  /projects/bics/designkits/xfab/xp018/cadence/v8_0/spectre/v8_0_1/lp5mos/models/cap/cdmmh6t.scs
Reading file:  /projects/bics/designkits/xfab/xp018/cadence/v8_0/spectre/v8_0_1/lp5mos/models/cap/ctmm5.scs
Reading file:  /projects/bics/designkits/xfab/xp018/cadence/v8_0/spectre/v8_0_1/lp5mos/models/cap/ctmm5t.scs
Reading file:  /projects/bics/designkits/xfab/xp018/cadence/v8_0/spectre/v8_0_1/lp5mos/models/cap/ctmmh5.scs
Reading file:  /projects/bics/designkits/xfab/xp018/cadence/v8_0/spectre/v8_0_1/lp5mos/models/cap/ctmmh5t.scs
Reading file:  /projects/bics/designkits/xfab/xp018/cadence/v8_0/spectre/v8_0_1/lp5mos/models/cap/ctmm6t.scs
Reading file:  /projects/bics/designkits/xfab/xp018/cadence/v8_0/spectre/v8_0_1/lp5mos/models/cap/ctmmh6t.scs
Reading file:  /projects/bics/designkits/xfab/xp018/cadence/v8_0/spectre/v8_0_1/lp5mos/models/cap/cp1sub.scs
Reading file:  /projects/bics/designkits/xfab/xp018/cadence/v8_0/spectre/v8_0_1/lp5mos/models/cap/cp1suba.scs
Reading file:  /projects/bics/designkits/xfab/xp018/cadence/v8_0/spectre/v8_0_1/lp5mos/models/cap/cp1subp.scs
Reading file:  /projects/bics/designkits/xfab/xp018/cadence/v8_0/spectre/v8_0_1/lp5mos/models/cap/p_cap.scs
Reading file:  /projects/bics/designkits/xfab/xp018/cadence/v8_0/spectre/v8_0_1/lp5mos/models/cap/oc_m60v_60v.scs
Reading file:  /projects/bics/designkits/xfab/xp018/cadence/v8_0/spectre/v8_0_1/lp5mos/models/cap/mosvc.scs
Reading file:  /projects/bics/designkits/xfab/xp018/cadence/v8_0/spectre/v8_0_1/lp5mos/models/cap/mosvc_pmos.scs
Reading file:  /projects/bics/designkits/xfab/xp018/cadence/v8_0/spectre/v8_0_1/lp5mos/models/cap/mosvci_a.scs
Reading file:  /projects/bics/designkits/xfab/xp018/cadence/v8_0/spectre/v8_0_1/lp5mos/models/cap/mosvci_b.scs
Reading file:  /projects/bics/designkits/xfab/xp018/cadence/v8_0/spectre/v8_0_1/lp5mos/models/cap/mosvci_d.scs
Reading file:  /projects/bics/designkits/xfab/xp018/cadence/v8_0/spectre/v8_0_1/lp5mos/models/cap/mosvci_m.scs
Reading file:  /projects/bics/designkits/xfab/xp018/cadence/v8_0/spectre/v8_0_1/lp5mos/models/cap/mosvci_nmos.scs
Reading file:  /projects/bics/designkits/xfab/xp018/cadence/v8_0/spectre/v8_0_1/lp5mos/models/cap/mosvc5.scs
Reading file:  /projects/bics/designkits/xfab/xp018/cadence/v8_0/spectre/v8_0_1/lp5mos/models/cap/mosvc5_pmos.scs
Reading file:  /projects/bics/designkits/xfab/xp018/cadence/v8_0/spectre/v8_0_1/lp5mos/models/cap/mosvc5i_a.scs
Reading file:  /projects/bics/designkits/xfab/xp018/cadence/v8_0/spectre/v8_0_1/lp5mos/models/cap/mosvc5i_b.scs
Reading file:  /projects/bics/designkits/xfab/xp018/cadence/v8_0/spectre/v8_0_1/lp5mos/models/cap/mosvc5i_d.scs
Reading file:  /projects/bics/designkits/xfab/xp018/cadence/v8_0/spectre/v8_0_1/lp5mos/models/cap/mosvc5i_m.scs
Reading file:  /projects/bics/designkits/xfab/xp018/cadence/v8_0/spectre/v8_0_1/lp5mos/models/cap/mosvc5i_nmos.scs
Reading file:  /projects/bics/designkits/xfab/xp018/cadence/v8_0/spectre/v8_0_1/lp5mos/models/cap/tag_25v.scs
Reading file:  /projects/bics/designkits/xfab/xp018/cadence/v8_0/spectre/v8_0_1/lp5mos/models/cap/tag_60v.scs
Reading file:  /projects/bics/designkits/xfab/xp018/cadence/v8_0/spectre/v8_0_1/lp5mos/models/cap/tag_100v.scs
Reading file:  /projects/bics/designkits/xfab/xp018/cadence/v8_0/spectre/v8_0_1/lp5mos/models/cap/tag_m25v.scs
Reading file:  /projects/bics/designkits/xfab/xp018/cadence/v8_0/spectre/v8_0_1/lp5mos/models/cap/tag_m60v.scs
Reading file:  /projects/bics/designkits/xfab/xp018/cadence/v8_0/spectre/v8_0_1/lp5mos/models/cap/tag_m100v.scs
Reading file:  /projects/bics/designkits/xfab/xp018/cadence/v8_0/spectre/v8_0_1/lp5mos/dio.scs
Reading file:  /projects/bics/designkits/xfab/xp018/cadence/v8_0/spectre/v8_0_1/lp5mos/models/dio/tm_dio.scs
Reading file:  /projects/bics/designkits/xfab/xp018/cadence/v8_0/spectre/v8_0_1/lp5mos/models/dio/dn.scs
Reading file:  /projects/bics/designkits/xfab/xp018/cadence/v8_0/spectre/v8_0_1/lp5mos/models/dio/dnn.scs
Reading file:  /projects/bics/designkits/xfab/xp018/cadence/v8_0/spectre/v8_0_1/lp5mos/models/dio/dp.scs
Reading file:  /projects/bics/designkits/xfab/xp018/cadence/v8_0/spectre/v8_0_1/lp5mos/models/dio/dnw.scs
Reading file:  /projects/bics/designkits/xfab/xp018/cadence/v8_0/spectre/v8_0_1/lp5mos/models/dio/dn5.scs
Reading file:  /projects/bics/designkits/xfab/xp018/cadence/v8_0/spectre/v8_0_1/lp5mos/models/dio/dnn5.scs
Reading file:  /projects/bics/designkits/xfab/xp018/cadence/v8_0/spectre/v8_0_1/lp5mos/models/dio/dp5.scs
Reading file:  /projects/bics/designkits/xfab/xp018/cadence/v8_0/spectre/v8_0_1/lp5mos/models/dio/dnw5.scs
Reading file:  /projects/bics/designkits/xfab/xp018/cadence/v8_0/spectre/v8_0_1/lp5mos/models/dio/ddnwmv.scs
Reading file:  /projects/bics/designkits/xfab/xp018/cadence/v8_0/spectre/v8_0_1/lp5mos/models/dio/ddnw15.scs
Reading file:  /projects/bics/designkits/xfab/xp018/cadence/v8_0/spectre/v8_0_1/lp5mos/models/dio/ddnw25.scs
Reading file:  /projects/bics/designkits/xfab/xp018/cadence/v8_0/spectre/v8_0_1/lp5mos/models/dio/ddnw60.scs
Reading file:  /projects/bics/designkits/xfab/xp018/cadence/v8_0/spectre/v8_0_1/lp5mos/models/dio/dpdnwmv.scs
Reading file:  /projects/bics/designkits/xfab/xp018/cadence/v8_0/spectre/v8_0_1/lp5mos/models/dio/dpdnw15.scs
Reading file:  /projects/bics/designkits/xfab/xp018/cadence/v8_0/spectre/v8_0_1/lp5mos/models/dio/dpdnw25.scs
Reading file:  /projects/bics/designkits/xfab/xp018/cadence/v8_0/spectre/v8_0_1/lp5mos/models/dio/dpdnw60.scs
Reading file:  /projects/bics/designkits/xfab/xp018/cadence/v8_0/spectre/v8_0_1/lp5mos/models/dio/dipdnwmv.scs
Reading file:  /projects/bics/designkits/xfab/xp018/cadence/v8_0/spectre/v8_0_1/lp5mos/models/dio/dipdnw15.scs
Reading file:  /projects/bics/designkits/xfab/xp018/cadence/v8_0/spectre/v8_0_1/lp5mos/models/dio/dipdnw25.scs
Reading file:  /projects/bics/designkits/xfab/xp018/cadence/v8_0/spectre/v8_0_1/lp5mos/models/dio/dipdnw60.scs
Reading file:  /projects/bics/designkits/xfab/xp018/cadence/v8_0/spectre/v8_0_1/lp5mos/models/dio/dipdnwmvz.scs
Reading file:  /projects/bics/designkits/xfab/xp018/cadence/v8_0/spectre/v8_0_1/lp5mos/models/dio/dipdnw15z.scs
Reading file:  /projects/bics/designkits/xfab/xp018/cadence/v8_0/spectre/v8_0_1/lp5mos/models/dio/dipdnw25z.scs
Reading file:  /projects/bics/designkits/xfab/xp018/cadence/v8_0/spectre/v8_0_1/lp5mos/models/dio/dipdnw60z.scs
Reading file:  /projects/bics/designkits/xfab/xp018/cadence/v8_0/spectre/v8_0_1/lp5mos/models/dio/dnp.scs
Reading file:  /projects/bics/designkits/xfab/xp018/cadence/v8_0/spectre/v8_0_1/lp5mos/models/dio/dpp.scs
Reading file:  /projects/bics/designkits/xfab/xp018/cadence/v8_0/spectre/v8_0_1/lp5mos/models/dio/dsa.scs
Reading file:  /projects/bics/designkits/xfab/xp018/cadence/v8_0/spectre/v8_0_1/lp5mos/models/dio/dsaa.scs
Reading file:  /projects/bics/designkits/xfab/xp018/cadence/v8_0/spectre/v8_0_1/lp5mos/models/dio/dsaa_qp1.scs
Reading file:  /projects/bics/designkits/xfab/xp018/cadence/v8_0/spectre/v8_0_1/lp5mos/models/dio/dsb.scs
Reading file:  /projects/bics/designkits/xfab/xp018/cadence/v8_0/spectre/v8_0_1/lp5mos/models/dio/dsba.scs
Reading file:  /projects/bics/designkits/xfab/xp018/cadence/v8_0/spectre/v8_0_1/lp5mos/models/dio/dsba_qp1.scs
Reading file:  /projects/bics/designkits/xfab/xp018/cadence/v8_0/spectre/v8_0_1/lp5mos/models/dio/dndd.scs
Reading file:  /projects/bics/designkits/xfab/xp018/cadence/v8_0/spectre/v8_0_1/lp5mos/models/dio/dpdddnw.scs
Reading file:  /projects/bics/designkits/xfab/xp018/cadence/v8_0/spectre/v8_0_1/lp5mos/models/dio/dpdddnw_esd.scs
Reading file:  /projects/bics/designkits/xfab/xp018/cadence/v8_0/spectre/v8_0_1/lp5mos/models/dio/dpddipdnw_esd.scs
Reading file:  /projects/bics/designkits/xfab/xp018/cadence/v8_0/spectre/v8_0_1/lp5mos/models/dio/dnddpb.scs
Reading file:  /projects/bics/designkits/xfab/xp018/cadence/v8_0/spectre/v8_0_1/lp5mos/models/dio/dvdnw.scs
Reading file:  /projects/bics/designkits/xfab/xp018/cadence/v8_0/spectre/v8_0_1/lp5mos/models/dio/dvdnw_esd.scs
Reading file:  /projects/bics/designkits/xfab/xp018/cadence/v8_0/spectre/v8_0_1/lp5mos/models/dio/ddpbvdnw.scs
Reading file:  /projects/bics/designkits/xfab/xp018/cadence/v8_0/spectre/v8_0_1/lp5mos/models/dio/dpd2dnw.scs
Reading file:  /projects/bics/designkits/xfab/xp018/cadence/v8_0/spectre/v8_0_1/lp5mos/models/dio/dndddpb.scs
Reading file:  /projects/bics/designkits/xfab/xp018/cadence/v8_0/spectre/v8_0_1/lp5mos/models/dio/dpddvdnw_esd.scs
Reading file:  /projects/bics/designkits/xfab/xp018/cadence/v8_0/spectre/v8_0_1/lp5mos/models/dio/dpburvdnw.scs
Reading file:  /projects/bics/designkits/xfab/xp018/cadence/v8_0/spectre/v8_0_1/lp5mos/models/dio/dpddvdnw.scs
Reading file:  /projects/bics/designkits/xfab/xp018/cadence/v8_0/spectre/v8_0_1/lp5mos/models/dio/dpddipvdnw_esd.scs
Reading file:  /projects/bics/designkits/xfab/xp018/cadence/v8_0/spectre/v8_0_1/lp5mos/models/dio/dn5nm.scs
Reading file:  /projects/bics/designkits/xfab/xp018/cadence/v8_0/spectre/v8_0_1/lp5mos/models/dio/dp5pm.scs
Reading file:  /projects/bics/designkits/xfab/xp018/cadence/v8_0/spectre/v8_0_1/lp5mos/models/dio/dza_a.scs
Reading file:  /projects/bics/designkits/xfab/xp018/cadence/v8_0/spectre/v8_0_1/lp5mos/models/dio/dza_b.scs
Reading file:  /projects/bics/designkits/xfab/xp018/cadence/v8_0/spectre/v8_0_1/lp5mos/models/dio/dza_d.scs
Reading file:  /projects/bics/designkits/xfab/xp018/cadence/v8_0/spectre/v8_0_1/lp5mos/models/dio/dza_m.scs
Reading file:  /projects/bics/designkits/xfab/xp018/cadence/v8_0/spectre/v8_0_1/lp5mos/models/dio/dzb_a.scs
Reading file:  /projects/bics/designkits/xfab/xp018/cadence/v8_0/spectre/v8_0_1/lp5mos/models/dio/dzb_b.scs
Reading file:  /projects/bics/designkits/xfab/xp018/cadence/v8_0/spectre/v8_0_1/lp5mos/models/dio/dzb_d.scs
Reading file:  /projects/bics/designkits/xfab/xp018/cadence/v8_0/spectre/v8_0_1/lp5mos/models/dio/dzb_m.scs
Reading file:  /projects/bics/designkits/xfab/xp018/cadence/v8_0/spectre/v8_0_1/lp5mos/models/dio/dzc.scs
Reading file:  /projects/bics/designkits/xfab/xp018/cadence/v8_0/spectre/v8_0_1/lp5mos/models/dio/ddnwnvm.scs
Reading file:  /projects/bics/designkits/xfab/xp018/cadence/v8_0/spectre/v8_0_1/lp5mos/models/dio/dipdnwnvm.scs
Reading file:  /projects/bics/designkits/xfab/xp018/cadence/v8_0/spectre/v8_0_1/lp5mos/models/dio/dpdnwnvm.scs
Reading file:  /projects/bics/designkits/xfab/xp018/cadence/v8_0/spectre/v8_0_1/lp5mos/models/dio/dpsdnwnvm.scs
Reading file:  /projects/bics/designkits/xfab/xp018/cadence/v8_0/spectre/v8_0_1/lp5mos/models/dio/dpsdnwmv.scs
Reading file:  /projects/bics/designkits/xfab/xp018/cadence/v8_0/spectre/v8_0_1/lp5mos/models/dio/dn5ps.scs
Reading file:  /projects/bics/designkits/xfab/xp018/cadence/v8_0/spectre/v8_0_1/lp5mos/mos.scs
Reading file:  /projects/bics/designkits/xfab/xp018/cadence/v8_0/spectre/v8_0_1/lp5mos/models/mos/tm_mos.scs
Reading file:  /projects/bics/designkits/xfab/xp018/cadence/v8_0/spectre/v8_0_1/lp5mos/models/mos/ne.scs
Reading file:  /projects/bics/designkits/xfab/xp018/cadence/v8_0/spectre/v8_0_1/lp5mos/models/mos/pe.scs
Reading file:  /projects/bics/designkits/xfab/xp018/cadence/v8_0/spectre/v8_0_1/lp5mos/models/mos/pe_5.scs
Reading file:  /projects/bics/designkits/xfab/xp018/cadence/v8_0/spectre/v8_0_1/lp5mos/models/mos/nn.scs
Reading file:  /projects/bics/designkits/xfab/xp018/cadence/v8_0/spectre/v8_0_1/lp5mos/models/mos/nei.scs
Reading file:  /projects/bics/designkits/xfab/xp018/cadence/v8_0/spectre/v8_0_1/lp5mos/models/mos/nei_m_6.scs
Reading file:  /projects/bics/designkits/xfab/xp018/cadence/v8_0/spectre/v8_0_1/lp5mos/models/mos/nei_a_6.scs
Reading file:  /projects/bics/designkits/xfab/xp018/cadence/v8_0/spectre/v8_0_1/lp5mos/models/mos/nei_b_6.scs
Reading file:  /projects/bics/designkits/xfab/xp018/cadence/v8_0/spectre/v8_0_1/lp5mos/models/mos/nei_d_6.scs
Reading file:  /projects/bics/designkits/xfab/xp018/cadence/v8_0/spectre/v8_0_1/lp5mos/models/mos/pei.scs
Reading file:  /projects/bics/designkits/xfab/xp018/cadence/v8_0/spectre/v8_0_1/lp5mos/models/mos/pei_m_5.scs
Reading file:  /projects/bics/designkits/xfab/xp018/cadence/v8_0/spectre/v8_0_1/lp5mos/models/mos/pei_a_5.scs
Reading file:  /projects/bics/designkits/xfab/xp018/cadence/v8_0/spectre/v8_0_1/lp5mos/models/mos/pei_b_5.scs
Reading file:  /projects/bics/designkits/xfab/xp018/cadence/v8_0/spectre/v8_0_1/lp5mos/models/mos/pei_d_5.scs
Reading file:  /projects/bics/designkits/xfab/xp018/cadence/v8_0/spectre/v8_0_1/lp5mos/models/mos/pei_n_5.scs
Reading file:  /projects/bics/designkits/xfab/xp018/cadence/v8_0/spectre/v8_0_1/lp5mos/models/mos/nel.scs
Reading file:  /projects/bics/designkits/xfab/xp018/cadence/v8_0/spectre/v8_0_1/lp5mos/models/mos/pel.scs
Reading file:  /projects/bics/designkits/xfab/xp018/cadence/v8_0/spectre/v8_0_1/lp5mos/models/mos/pel_5.scs
Reading file:  /projects/bics/designkits/xfab/xp018/cadence/v8_0/spectre/v8_0_1/lp5mos/models/mos/neli.scs
Reading file:  /projects/bics/designkits/xfab/xp018/cadence/v8_0/spectre/v8_0_1/lp5mos/models/mos/neli_m_6.scs
Reading file:  /projects/bics/designkits/xfab/xp018/cadence/v8_0/spectre/v8_0_1/lp5mos/models/mos/neli_a_6.scs
Reading file:  /projects/bics/designkits/xfab/xp018/cadence/v8_0/spectre/v8_0_1/lp5mos/models/mos/neli_b_6.scs
Reading file:  /projects/bics/designkits/xfab/xp018/cadence/v8_0/spectre/v8_0_1/lp5mos/models/mos/neli_d_6.scs
Reading file:  /projects/bics/designkits/xfab/xp018/cadence/v8_0/spectre/v8_0_1/lp5mos/models/mos/neli_n_6.scs
Reading file:  /projects/bics/designkits/xfab/xp018/cadence/v8_0/spectre/v8_0_1/lp5mos/models/mos/peli.scs
Reading file:  /projects/bics/designkits/xfab/xp018/cadence/v8_0/spectre/v8_0_1/lp5mos/models/mos/peli_m_5.scs
Reading file:  /projects/bics/designkits/xfab/xp018/cadence/v8_0/spectre/v8_0_1/lp5mos/models/mos/peli_a_5.scs
Reading file:  /projects/bics/designkits/xfab/xp018/cadence/v8_0/spectre/v8_0_1/lp5mos/models/mos/peli_b_5.scs
Reading file:  /projects/bics/designkits/xfab/xp018/cadence/v8_0/spectre/v8_0_1/lp5mos/models/mos/peli_d_5.scs
Reading file:  /projects/bics/designkits/xfab/xp018/cadence/v8_0/spectre/v8_0_1/lp5mos/models/mos/peli_n_5.scs
Reading file:  /projects/bics/designkits/xfab/xp018/cadence/v8_0/spectre/v8_0_1/lp5mos/models/mos/nesvt.scs
Reading file:  /projects/bics/designkits/xfab/xp018/cadence/v8_0/spectre/v8_0_1/lp5mos/models/mos/nesvti.scs
Reading file:  /projects/bics/designkits/xfab/xp018/cadence/v8_0/spectre/v8_0_1/lp5mos/models/mos/nesvti_m_6.scs
Reading file:  /projects/bics/designkits/xfab/xp018/cadence/v8_0/spectre/v8_0_1/lp5mos/models/mos/nesvti_a_6.scs
Reading file:  /projects/bics/designkits/xfab/xp018/cadence/v8_0/spectre/v8_0_1/lp5mos/models/mos/nesvti_b_6.scs
Reading file:  /projects/bics/designkits/xfab/xp018/cadence/v8_0/spectre/v8_0_1/lp5mos/models/mos/nesvti_d_6.scs
Reading file:  /projects/bics/designkits/xfab/xp018/cadence/v8_0/spectre/v8_0_1/lp5mos/models/mos/nesvti_n_6.scs
Reading file:  /projects/bics/designkits/xfab/xp018/cadence/v8_0/spectre/v8_0_1/lp5mos/models/mos/pesvt.scs
Reading file:  /projects/bics/designkits/xfab/xp018/cadence/v8_0/spectre/v8_0_1/lp5mos/models/mos/pesvt_5.scs
Reading file:  /projects/bics/designkits/xfab/xp018/cadence/v8_0/spectre/v8_0_1/lp5mos/models/mos/pesvti.scs
Reading file:  /projects/bics/designkits/xfab/xp018/cadence/v8_0/spectre/v8_0_1/lp5mos/models/mos/pesvti_m_5.scs
Reading file:  /projects/bics/designkits/xfab/xp018/cadence/v8_0/spectre/v8_0_1/lp5mos/models/mos/pesvti_a_5.scs
Reading file:  /projects/bics/designkits/xfab/xp018/cadence/v8_0/spectre/v8_0_1/lp5mos/models/mos/pesvti_b_5.scs
Reading file:  /projects/bics/designkits/xfab/xp018/cadence/v8_0/spectre/v8_0_1/lp5mos/models/mos/pesvti_d_5.scs
Reading file:  /projects/bics/designkits/xfab/xp018/cadence/v8_0/spectre/v8_0_1/lp5mos/models/mos/pesvti_n_5.scs
Reading file:  /projects/bics/designkits/xfab/xp018/cadence/v8_0/spectre/v8_0_1/lp5mos/models/mos/nd5.scs
Reading file:  /projects/bics/designkits/xfab/xp018/cadence/v8_0/spectre/v8_0_1/lp5mos/models/mos/nd5_mos1.scs
Reading file:  /projects/bics/designkits/xfab/xp018/cadence/v8_0/spectre/v8_0_1/lp5mos/models/mos/nd5_mos2.scs
Reading file:  /projects/bics/designkits/xfab/xp018/cadence/v8_0/spectre/v8_0_1/lp5mos/models/mos/nd5i.scs
Reading file:  /projects/bics/designkits/xfab/xp018/cadence/v8_0/spectre/v8_0_1/lp5mos/models/mos/nd5i_mos1.scs
Reading file:  /projects/bics/designkits/xfab/xp018/cadence/v8_0/spectre/v8_0_1/lp5mos/models/mos/nd5i_mos2.scs
Reading file:  /projects/bics/designkits/xfab/xp018/cadence/v8_0/spectre/v8_0_1/lp5mos/models/mos/nd5i_m_6.scs
Reading file:  /projects/bics/designkits/xfab/xp018/cadence/v8_0/spectre/v8_0_1/lp5mos/models/mos/nd5i_a_6.scs
Reading file:  /projects/bics/designkits/xfab/xp018/cadence/v8_0/spectre/v8_0_1/lp5mos/models/mos/nd5i_b_6.scs
Reading file:  /projects/bics/designkits/xfab/xp018/cadence/v8_0/spectre/v8_0_1/lp5mos/models/mos/nd5i_d_6.scs
Reading file:  /projects/bics/designkits/xfab/xp018/cadence/v8_0/spectre/v8_0_1/lp5mos/models/mos/nn5.scs
Reading file:  /projects/bics/designkits/xfab/xp018/cadence/v8_0/spectre/v8_0_1/lp5mos/models/mos/nn5_jf.scs
Reading file:  /projects/bics/designkits/xfab/xp018/cadence/v8_0/spectre/v8_0_1/lp5mos/models/mos/ne5.scs
Reading file:  /projects/bics/designkits/xfab/xp018/cadence/v8_0/spectre/v8_0_1/lp5mos/models/mos/pe5.scs
Reading file:  /projects/bics/designkits/xfab/xp018/cadence/v8_0/spectre/v8_0_1/lp5mos/models/mos/pe5_5.scs
Reading file:  /projects/bics/designkits/xfab/xp018/cadence/v8_0/spectre/v8_0_1/lp5mos/models/mos/ne5i.scs
Reading file:  /projects/bics/designkits/xfab/xp018/cadence/v8_0/spectre/v8_0_1/lp5mos/models/mos/ne5i_m_6.scs
Reading file:  /projects/bics/designkits/xfab/xp018/cadence/v8_0/spectre/v8_0_1/lp5mos/models/mos/ne5i_a_6.scs
Reading file:  /projects/bics/designkits/xfab/xp018/cadence/v8_0/spectre/v8_0_1/lp5mos/models/mos/ne5i_b_6.scs
Reading file:  /projects/bics/designkits/xfab/xp018/cadence/v8_0/spectre/v8_0_1/lp5mos/models/mos/ne5i_d_6.scs
Reading file:  /projects/bics/designkits/xfab/xp018/cadence/v8_0/spectre/v8_0_1/lp5mos/models/mos/pe5i.scs
Reading file:  /projects/bics/designkits/xfab/xp018/cadence/v8_0/spectre/v8_0_1/lp5mos/models/mos/pe5i_m_5.scs
Reading file:  /projects/bics/designkits/xfab/xp018/cadence/v8_0/spectre/v8_0_1/lp5mos/models/mos/pe5i_a_5.scs
Reading file:  /projects/bics/designkits/xfab/xp018/cadence/v8_0/spectre/v8_0_1/lp5mos/models/mos/pe5i_b_5.scs
Reading file:  /projects/bics/designkits/xfab/xp018/cadence/v8_0/spectre/v8_0_1/lp5mos/models/mos/pe5i_d_5.scs
Reading file:  /projects/bics/designkits/xfab/xp018/cadence/v8_0/spectre/v8_0_1/lp5mos/models/mos/pe5i_n_5.scs
Reading file:  /projects/bics/designkits/xfab/xp018/cadence/v8_0/spectre/v8_0_1/lp5mos/models/mos/nede.scs
Reading file:  /projects/bics/designkits/xfab/xp018/cadence/v8_0/spectre/v8_0_1/lp5mos/models/mos/nede_bjt.scs
Reading file:  /projects/bics/designkits/xfab/xp018/cadence/v8_0/spectre/v8_0_1/lp5mos/models/mos/neda.scs
Reading file:  /projects/bics/designkits/xfab/xp018/cadence/v8_0/spectre/v8_0_1/lp5mos/models/mos/neda_bjt.scs
Reading file:  /projects/bics/designkits/xfab/xp018/cadence/v8_0/spectre/v8_0_1/lp5mos/models/mos/nedb.scs
Reading file:  /projects/bics/designkits/xfab/xp018/cadence/v8_0/spectre/v8_0_1/lp5mos/models/mos/nedb_bjt.scs
Reading file:  /projects/bics/designkits/xfab/xp018/cadence/v8_0/spectre/v8_0_1/lp5mos/models/mos/nedc.scs
Reading file:  /projects/bics/designkits/xfab/xp018/cadence/v8_0/spectre/v8_0_1/lp5mos/models/mos/nedc_bjt.scs
Reading file:  /projects/bics/designkits/xfab/xp018/cadence/v8_0/spectre/v8_0_1/lp5mos/models/mos/nedd.scs
Reading file:  /projects/bics/designkits/xfab/xp018/cadence/v8_0/spectre/v8_0_1/lp5mos/models/mos/nedd_bjt.scs
Reading file:  /projects/bics/designkits/xfab/xp018/cadence/v8_0/spectre/v8_0_1/lp5mos/models/mos/pede.scs
Reading file:  /projects/bics/designkits/xfab/xp018/cadence/v8_0/spectre/v8_0_1/lp5mos/models/mos/pede_bjt.scs
Reading file:  /projects/bics/designkits/xfab/xp018/cadence/v8_0/spectre/v8_0_1/lp5mos/models/mos/peda.scs
Reading file:  /projects/bics/designkits/xfab/xp018/cadence/v8_0/spectre/v8_0_1/lp5mos/models/mos/peda_bjt.scs
Reading file:  /projects/bics/designkits/xfab/xp018/cadence/v8_0/spectre/v8_0_1/lp5mos/models/mos/pedb.scs
Reading file:  /projects/bics/designkits/xfab/xp018/cadence/v8_0/spectre/v8_0_1/lp5mos/models/mos/pedb_bjt.scs
Reading file:  /projects/bics/designkits/xfab/xp018/cadence/v8_0/spectre/v8_0_1/lp5mos/models/mos/pedc.scs
Reading file:  /projects/bics/designkits/xfab/xp018/cadence/v8_0/spectre/v8_0_1/lp5mos/models/mos/pedc_bjt.scs
Reading file:  /projects/bics/designkits/xfab/xp018/cadence/v8_0/spectre/v8_0_1/lp5mos/models/mos/pedd.scs
Reading file:  /projects/bics/designkits/xfab/xp018/cadence/v8_0/spectre/v8_0_1/lp5mos/models/mos/pedd_bjt.scs
Reading file:  /projects/bics/designkits/xfab/xp018/cadence/v8_0/spectre/v8_0_1/lp5mos/models/mos/nmma.scs
Reading file:  /projects/bics/designkits/xfab/xp018/cadence/v8_0/spectre/v8_0_1/lp5mos/models/mos/nmma_bjt.scs
Reading file:  /projects/bics/designkits/xfab/xp018/cadence/v8_0/spectre/v8_0_1/lp5mos/models/mos/nmmb.scs
Reading file:  /projects/bics/designkits/xfab/xp018/cadence/v8_0/spectre/v8_0_1/lp5mos/models/mos/nmmb_bjt.scs
Reading file:  /projects/bics/designkits/xfab/xp018/cadence/v8_0/spectre/v8_0_1/lp5mos/models/mos/nmb.scs
Reading file:  /projects/bics/designkits/xfab/xp018/cadence/v8_0/spectre/v8_0_1/lp5mos/models/mos/nmb_bjt.scs
Reading file:  /projects/bics/designkits/xfab/xp018/cadence/v8_0/spectre/v8_0_1/lp5mos/models/mos/nmmc.scs
Reading file:  /projects/bics/designkits/xfab/xp018/cadence/v8_0/spectre/v8_0_1/lp5mos/models/mos/nmmc_bjt.scs
Reading file:  /projects/bics/designkits/xfab/xp018/cadence/v8_0/spectre/v8_0_1/lp5mos/models/mos/nmc.scs
Reading file:  /projects/bics/designkits/xfab/xp018/cadence/v8_0/spectre/v8_0_1/lp5mos/models/mos/nmc_bjt.scs
Reading file:  /projects/bics/designkits/xfab/xp018/cadence/v8_0/spectre/v8_0_1/lp5mos/models/mos/pmma.scs
Reading file:  /projects/bics/designkits/xfab/xp018/cadence/v8_0/spectre/v8_0_1/lp5mos/models/mos/pmma_bjt.scs
Reading file:  /projects/bics/designkits/xfab/xp018/cadence/v8_0/spectre/v8_0_1/lp5mos/models/mos/pmmb.scs
Reading file:  /projects/bics/designkits/xfab/xp018/cadence/v8_0/spectre/v8_0_1/lp5mos/models/mos/pmmb_bjt.scs
Reading file:  /projects/bics/designkits/xfab/xp018/cadence/v8_0/spectre/v8_0_1/lp5mos/models/mos/pmb.scs
Reading file:  /projects/bics/designkits/xfab/xp018/cadence/v8_0/spectre/v8_0_1/lp5mos/models/mos/pmb_bjt.scs
Reading file:  /projects/bics/designkits/xfab/xp018/cadence/v8_0/spectre/v8_0_1/lp5mos/models/mos/pmmc.scs
Reading file:  /projects/bics/designkits/xfab/xp018/cadence/v8_0/spectre/v8_0_1/lp5mos/models/mos/pmmc_bjt.scs
Reading file:  /projects/bics/designkits/xfab/xp018/cadence/v8_0/spectre/v8_0_1/lp5mos/models/mos/pmc.scs
Reading file:  /projects/bics/designkits/xfab/xp018/cadence/v8_0/spectre/v8_0_1/lp5mos/models/mos/pmc_bjt.scs
Reading file:  /projects/bics/designkits/xfab/xp018/cadence/v8_0/spectre/v8_0_1/lp5mos/models/mos/nhva.scs
Reading file:  /projects/bics/designkits/xfab/xp018/cadence/v8_0/spectre/v8_0_1/lp5mos/models/mos/nhva_bjt.scs
Reading file:  /projects/bics/designkits/xfab/xp018/cadence/v8_0/spectre/v8_0_1/lp5mos/models/mos/nhvb.scs
Reading file:  /projects/bics/designkits/xfab/xp018/cadence/v8_0/spectre/v8_0_1/lp5mos/models/mos/nhvb_bjt.scs
Reading file:  /projects/bics/designkits/xfab/xp018/cadence/v8_0/spectre/v8_0_1/lp5mos/models/mos/phva.scs
Reading file:  /projects/bics/designkits/xfab/xp018/cadence/v8_0/spectre/v8_0_1/lp5mos/models/mos/phva_bjt.scs
Reading file:  /projects/bics/designkits/xfab/xp018/cadence/v8_0/spectre/v8_0_1/lp5mos/models/mos/phvb.scs
Reading file:  /projects/bics/designkits/xfab/xp018/cadence/v8_0/spectre/v8_0_1/lp5mos/models/mos/phvb_bjt.scs
Reading file:  /projects/bics/designkits/xfab/xp018/cadence/v8_0/spectre/v8_0_1/lp5mos/models/mos/ndia.scs
Reading file:  /projects/bics/designkits/xfab/xp018/cadence/v8_0/spectre/v8_0_1/lp5mos/models/mos/ndia_bjt.scs
Reading file:  /projects/bics/designkits/xfab/xp018/cadence/v8_0/spectre/v8_0_1/lp5mos/models/mos/ndib.scs
Reading file:  /projects/bics/designkits/xfab/xp018/cadence/v8_0/spectre/v8_0_1/lp5mos/models/mos/ndib_bjt.scs
Reading file:  /projects/bics/designkits/xfab/xp018/cadence/v8_0/spectre/v8_0_1/lp5mos/res.scs
Reading file:  /projects/bics/designkits/xfab/xp018/cadence/v8_0/spectre/v8_0_1/lp5mos/models/res/tm_res.scs
Reading file:  /projects/bics/designkits/xfab/xp018/cadence/v8_0/spectre/v8_0_1/lp5mos/models/res/rdn.scs
Reading file:  /projects/bics/designkits/xfab/xp018/cadence/v8_0/spectre/v8_0_1/lp5mos/models/res/rdp.scs
Reading file:  /projects/bics/designkits/xfab/xp018/cadence/v8_0/spectre/v8_0_1/lp5mos/models/res/rnw.scs
Reading file:  /projects/bics/designkits/xfab/xp018/cadence/v8_0/spectre/v8_0_1/lp5mos/models/res/rnw_scr.scs
Reading file:  /projects/bics/designkits/xfab/xp018/cadence/v8_0/spectre/v8_0_1/lp5mos/models/res/rdn5.scs
Reading file:  /projects/bics/designkits/xfab/xp018/cadence/v8_0/spectre/v8_0_1/lp5mos/models/res/rdn5_dpc.scs
Reading file:  /projects/bics/designkits/xfab/xp018/cadence/v8_0/spectre/v8_0_1/lp5mos/models/res/rdp5.scs
Reading file:  /projects/bics/designkits/xfab/xp018/cadence/v8_0/spectre/v8_0_1/lp5mos/models/res/rnw5.scs
Reading file:  /projects/bics/designkits/xfab/xp018/cadence/v8_0/spectre/v8_0_1/lp5mos/models/res/rnw5_scr.scs
Reading file:  /projects/bics/designkits/xfab/xp018/cadence/v8_0/spectre/v8_0_1/lp5mos/models/res/rdnwmv.scs
Reading file:  /projects/bics/designkits/xfab/xp018/cadence/v8_0/spectre/v8_0_1/lp5mos/models/res/rnp1.scs
Reading file:  /projects/bics/designkits/xfab/xp018/cadence/v8_0/spectre/v8_0_1/lp5mos/models/res/rnp1_3.scs
Reading file:  /projects/bics/designkits/xfab/xp018/cadence/v8_0/spectre/v8_0_1/lp5mos/models/res/rpp1.scs
Reading file:  /projects/bics/designkits/xfab/xp018/cadence/v8_0/spectre/v8_0_1/lp5mos/models/res/rpp1_3.scs
Reading file:  /projects/bics/designkits/xfab/xp018/cadence/v8_0/spectre/v8_0_1/lp5mos/models/res/rpp1s.scs
Reading file:  /projects/bics/designkits/xfab/xp018/cadence/v8_0/spectre/v8_0_1/lp5mos/models/res/rpp1s_3.scs
Reading file:  /projects/bics/designkits/xfab/xp018/cadence/v8_0/spectre/v8_0_1/lp5mos/models/res/rnp1h.scs
Reading file:  /projects/bics/designkits/xfab/xp018/cadence/v8_0/spectre/v8_0_1/lp5mos/models/res/rnp1h_3.scs
Reading file:  /projects/bics/designkits/xfab/xp018/cadence/v8_0/spectre/v8_0_1/lp5mos/models/res/rpp1k1.scs
Reading file:  /projects/bics/designkits/xfab/xp018/cadence/v8_0/spectre/v8_0_1/lp5mos/models/res/rpp1k1_3.scs
Reading file:  /projects/bics/designkits/xfab/xp018/cadence/v8_0/spectre/v8_0_1/lp5mos/models/res/rm1.scs
Reading file:  /projects/bics/designkits/xfab/xp018/cadence/v8_0/spectre/v8_0_1/lp5mos/models/res/rm2.scs
Reading file:  /projects/bics/designkits/xfab/xp018/cadence/v8_0/spectre/v8_0_1/lp5mos/models/res/rm3.scs
Reading file:  /projects/bics/designkits/xfab/xp018/cadence/v8_0/spectre/v8_0_1/lp5mos/models/res/rm4.scs
Reading file:  /projects/bics/designkits/xfab/xp018/cadence/v8_0/spectre/v8_0_1/lp5mos/models/res/rm5.scs
Reading file:  /projects/bics/designkits/xfab/xp018/cadence/v8_0/spectre/v8_0_1/lp5mos/models/res/rmtp.scs
Reading file:  /projects/bics/designkits/xfab/xp018/cadence/v8_0/spectre/v8_0_1/lp5mos/models/res/rmtpl.scs
Reading file:  /projects/bics/designkits/xfab/xp018/cadence/v8_0/spectre/v8_0_1/lp5mos/models/res/rctdn.scs
Reading file:  /projects/bics/designkits/xfab/xp018/cadence/v8_0/spectre/v8_0_1/lp5mos/models/res/rctdp.scs
Reading file:  /projects/bics/designkits/xfab/xp018/cadence/v8_0/spectre/v8_0_1/lp5mos/models/res/rsildn.scs
Reading file:  /projects/bics/designkits/xfab/xp018/cadence/v8_0/spectre/v8_0_1/lp5mos/models/res/rsildp.scs
Reading file:  /projects/bics/designkits/xfab/xp018/cadence/v8_0/spectre/v8_0_1/lp5mos/models/res/rctp1.scs
Reading file:  /projects/bics/designkits/xfab/xp018/cadence/v8_0/spectre/v8_0_1/lp5mos/models/res/rsilnp1.scs
Reading file:  /projects/bics/designkits/xfab/xp018/cadence/v8_0/spectre/v8_0_1/lp5mos/models/res/rsilpp1.scs
Reading file:  /projects/bics/designkits/xfab/xp018/cadence/v8_0/spectre/v8_0_1/lp5mos/models/res/rsbdn.scs
Reading file:  /projects/bics/designkits/xfab/xp018/cadence/v8_0/spectre/v8_0_1/lp5mos/models/res/rsbdp.scs
Reading file:  /projects/bics/designkits/xfab/xp018/cadence/v8_0/spectre/v8_0_1/lp5mos/models/res/rsbdn5.scs
Reading file:  /projects/bics/designkits/xfab/xp018/cadence/v8_0/spectre/v8_0_1/lp5mos/models/res/rsbdp5.scs
Reading file:  /projects/bics/designkits/xfab/xp018/cadence/v8_0/spectre/v8_0_1/lp5mos/models/res/rsbnp1.scs
Reading file:  /projects/bics/designkits/xfab/xp018/cadence/v8_0/spectre/v8_0_1/lp5mos/models/res/rsbpp1.scs
Reading file:  /projects/bics/designkits/xfab/xp018/cadence/v8_0/spectre/v8_0_1/lp5mos/models/res/rsbpp1k1.scs
Reading file:  /projects/bics/designkits/xfab/xp018/cadence/v8_0/spectre/v8_0_1/lp5mos/models/res/pfuse.scs
Reading file:  /projects/bics/designkits/xfab/xp018/cadence/v8_0/spectre/v8_0_1/lp5mos/models/res/p_rm1.scs
Reading file:  /projects/bics/designkits/xfab/xp018/cadence/v8_0/spectre/v8_0_1/lp5mos/models/res/p_rm2.scs
Reading file:  /projects/bics/designkits/xfab/xp018/cadence/v8_0/spectre/v8_0_1/lp5mos/models/res/p_rm3.scs
Reading file:  /projects/bics/designkits/xfab/xp018/cadence/v8_0/spectre/v8_0_1/lp5mos/models/res/p_rm4.scs
Reading file:  /projects/bics/designkits/xfab/xp018/cadence/v8_0/spectre/v8_0_1/lp5mos/models/res/p_rm5.scs
Reading file:  /projects/bics/designkits/xfab/xp018/cadence/v8_0/spectre/v8_0_1/lp5mos/models/res/p_rmtp.scs
Reading file:  /projects/bics/designkits/xfab/xp018/cadence/v8_0/spectre/v8_0_1/lp5mos/models/res/p_rmtpl.scs
Reading file:  /projects/bics/designkits/xfab/xp018/cadence/v8_0/spectre/v8_0_1/lp5mos/models/res/p_rvia1.scs
Reading file:  /projects/bics/designkits/xfab/xp018/cadence/v8_0/spectre/v8_0_1/lp5mos/models/res/p_rvia2.scs
Reading file:  /projects/bics/designkits/xfab/xp018/cadence/v8_0/spectre/v8_0_1/lp5mos/models/res/p_rvia3.scs
Reading file:  /projects/bics/designkits/xfab/xp018/cadence/v8_0/spectre/v8_0_1/lp5mos/models/res/p_rvia4.scs
Reading file:  /projects/bics/designkits/xfab/xp018/cadence/v8_0/spectre/v8_0_1/lp5mos/models/res/p_rviatp.scs
Reading file:  /projects/bics/designkits/xfab/xp018/cadence/v8_0/spectre/v8_0_1/lp5mos/models/res/p_rviatpl.scs
Reading file:  /projects/bics/designkits/xfab/xp018/cadence/v8_0/spectre/v8_0_1/lp5mos/models/res/p_rctdn.scs
Reading file:  /projects/bics/designkits/xfab/xp018/cadence/v8_0/spectre/v8_0_1/lp5mos/models/res/p_rctdp.scs
Reading file:  /projects/bics/designkits/xfab/xp018/cadence/v8_0/spectre/v8_0_1/lp5mos/models/res/p_rctp1.scs
Reading file:  /projects/bics/designkits/xfab/xp018/cadence/v8_0/spectre/v8_0_1/lp5mos/models/res/p_rp1s.scs
Reading file:  /projects/bics/designkits/xfab/xp018/cadence/v8_0/spectre/v8_0_1/lp5mos/models/res/s_res.scs
Time for NDB Parsing: CPU = 371.055 ms, elapsed = 707.585 ms.
Time accumulated: CPU = 495.891 ms, elapsed = 707.591 ms.
Peak resident memory used = 95.7 Mbytes.

Time for Elaboration: CPU = 23.454 ms, elapsed = 26.4859 ms.
Time accumulated: CPU = 519.642 ms, elapsed = 736.751 ms.
Peak resident memory used = 104 Mbytes.


Notice from spectre during hierarchy flattening.
    The value 'psf' specified for the 'checklimitdest' option will no longer be supported in future releases. Use 'spectre -h' to see other recommended values for the 'checklimitdest' option.

 Start ADE Session ID: HrZvykmYToPhbQXz

Time for EDB Visiting: CPU = 1.686 ms, elapsed = 4.26698 ms.
Time accumulated: CPU = 521.669 ms, elapsed = 744.398 ms.
Peak resident memory used = 105 Mbytes.


Warning from spectre during initial setup.
    WARNING (CMI-2441): I172.M5.m1: Instance length width or area does not fit the given lmax-lmin, wmax-wmin or areamax-areamin range for the model 'I56.M4.pemod'.
    WARNING (CMI-2441): I172.M4.m1: Instance length width or area does not fit the given lmax-lmin, wmax-wmin or areamax-areamin range for the model 'I56.M4.pemod'.
    WARNING (CMI-2441): I56.M5.m1: Instance length width or area does not fit the given lmax-lmin, wmax-wmin or areamax-areamin range for the model 'I56.M4.pemod'.
    WARNING (CMI-2441): I56.M4.m1: Instance length width or area does not fit the given lmax-lmin, wmax-wmin or areamax-areamin range for the model 'I56.M4.pemod'.
    WARNING (CMI-2441): M1.m1: Instance length width or area does not fit the given lmax-lmin, wmax-wmin or areamax-areamin range for the model 'I56.M2.nemod'.
        Further occurrences of this warning will be suppressed.

Reading file:  /home/s5117909/Documents/thesis/sebastian_thesis_repo/processing/general_code/spike_train_output/st_1/10_hz/trial_2.pwl
Reading file:  /home/s5117909/Documents/thesis/sebastian_thesis_repo/processing/general_code/spike_train_output/st_2/10_hz/trial_2.pwl

Notice from spectre during initial setup.
    Multithreading is disabled due to the size of the design being too small.


Global user options:
         psfversion = 1.4.0
            vabstol = 1e-06
            iabstol = 1e-12
               temp = 27
               gmin = 1e-12
             rforce = 1
           maxnotes = 5
           maxwarns = 5
             digits = 5
               cols = 80
             pivrel = 0.001
           sensfile = ../../../../../Documents/thesis/sebastian_thesis_repo/processing/cadence_extraction/output_data/10_hz_trial_2/psf/sens.output
     checklimitdest = psf
               save = allpub
             reltol = 0.001
               tnom = 27
             scalem = 1
              scale = 1

Scoped user options:

Circuit inventory:
              nodes 12
            bsim3v3 12    
          capacitor 2     
            vsource 6     

Analysis and control statement inventory:
               info 7     
               tran 1     

Output statements:
             .probe 0     
           .measure 0     
               save 1     

Design checks inventory:
          paramtest 1     


Notice from spectre during initial setup.
    Protected devices exist and are not included in the circuit inventory.
    APS enabled.
    7 warnings suppressed.

Time for parsing: CPU = 10.961 ms, elapsed = 47.4811 ms.
Time accumulated: CPU = 532.891 ms, elapsed = 794.669 ms.
Peak resident memory used = 107 Mbytes.

~~~~~~~~~~~~~~~~~~~~~~
Pre-Simulation Summary
~~~~~~~~~~~~~~~~~~~~~~
   -   (APS) Multi-threading. The recommended number of threads is 1, consider adding +mt=1 on command line.
~~~~~~~~~~~~~~~~~~~~~~
Entering remote command mode using MPSC service (spectre, ipi, v0.0, spectre6_3953_13, ).

**********************************************
Transient Analysis `tran': time = (0 s -> 1 s)
**********************************************

Notice from spectre during IC analysis, during transient analysis `tran'.
    GminDC = 1 pS is large enough to noticeably affect the DC solution.
        dV(Vin) = -20.5827 mV
        Use the `gmin_check' option to eliminate or expand this report.
Warning from spectre during IC analysis, during transient analysis `tran'.
    WARNING (CMI-2139): I172.M5.m1: The bulk-source junction current exceeds `imelt'.  The results computed by Spectre may be inaccurate because the junction current model has been linearized.
    WARNING (CMI-2144): I172.M5.m1: The bulk-source junction current exceeds `imax'.
    WARNING (CMI-2139): I172.M4.m1: The bulk-source junction current exceeds `imelt'.  The results computed by Spectre may be inaccurate because the junction current model has been linearized.
    WARNING (CMI-2144): I172.M4.m1: The bulk-source junction current exceeds `imax'.
    WARNING (CMI-2139): I56.M5.m1: The bulk-source junction current exceeds `imelt'.  The results computed by Spectre may be inaccurate because the junction current model has been linearized.
    WARNING (CMI-2144): I56.M5.m1: The bulk-source junction current exceeds `imax'.
    WARNING (CMI-2139): I56.M4.m1: The bulk-source junction current exceeds `imelt'.  The results computed by Spectre may be inaccurate because the junction current model has been linearized.
    WARNING (CMI-2144): I56.M4.m1: The bulk-source junction current exceeds `imax'.

DC simulation time: CPU = 3.463 ms, elapsed = 11.4911 ms.

Opening the PSFXL file ../../../../../Documents/thesis/sebastian_thesis_repo/processing/cadence_extraction/output_data/10_hz_trial_2/psf/tran.tran.tran ...
Important parameter values:
    start = 0 s
    outputstart = 0 s
    stop = 1 s
    step = 1 ms
    maxstep = 20 ms
    ic = all
    useprevic = no
    skipdc = no
    reltol = 1e-03
    abstol(V) = 1 uV
    abstol(I) = 1 pA
    temp = 27 C
    tnom = 27 C
    tempeffects = all
    errpreset = moderate
    method = traponly
    lteratio = 3.5
    relref = sigglobal
    cmin = 0 F
    gmin = 1 pS
    rabsshort = 1 mOhm


Notice from spectre during transient analysis `tran'.
    Multithreading is disabled due to the size of the design being too small.


Output and IC/nodeset summary:
                 save   8       (current)
                 save   12      (voltage)


Warning from spectre at time = 1 ms during transient analysis `tran'.
    WARNING (CMI-2139): I172.M5.m1: The bulk-source junction current exceeds `imelt'.  The results computed by Spectre may be inaccurate because the junction current model has been linearized.
        Further occurrences of this warning will be suppressed.
    WARNING (CMI-2144): I172.M5.m1: The bulk-source junction current exceeds `imax'.
        Further occurrences of this warning will be suppressed.

    tran: time = 31 ms        (3.1 %), step = 16 ms         (1.6 %)

Notice from spectre at time = 45.919 ms during transient analysis `tran'.
    Found trapezoidal ringing on node net1.
Notice from spectre at time = 45.919 ms during transient analysis `tran'.
    Found trapezoidal ringing on node net1.
Notice from spectre at time = 45.919 ms during transient analysis `tran'.
    Found trapezoidal ringing on node net1.
Notice from spectre at time = 45.9798 ms during transient analysis `tran'.
    Found trapezoidal ringing on node Vin1.
Notice from spectre at time = 46.019 ms during transient analysis `tran'.
    Found trapezoidal ringing on node Vin1.
        Further occurrences of this notice will be suppressed.

    tran: time = 94.04 ms     (9.4 %), step = 20 ms           (2 %)
    tran: time = 127.2 ms    (12.7 %), step = 6.95 ms      (695 m%)
    tran: time = 176.1 ms    (17.6 %), step = 15 ms         (1.5 %)
    tran: time = 235 ms      (23.5 %), step = 14.72 ms     (1.47 %)
    tran: time = 287.3 ms    (28.7 %), step = 12.33 ms     (1.23 %)
    tran: time = 325.2 ms    (32.5 %), step = 923.3 us    (92.3 m%)
    tran: time = 376 ms      (37.6 %), step = 1.847 ms     (185 m%)
    tran: time = 431.8 ms    (43.2 %), step = 7.359 ms     (736 m%)
    tran: time = 486.5 ms    (48.7 %), step = 20 ms           (2 %)
    tran: time = 526.5 ms    (52.7 %), step = 20 ms           (2 %)
    tran: time = 587.6 ms    (58.8 %), step = 20 ms           (2 %)
    tran: time = 627.6 ms    (62.8 %), step = 20 ms           (2 %)
    tran: time = 687.6 ms    (68.8 %), step = 20 ms           (2 %)
    tran: time = 727.1 ms    (72.7 %), step = 7.359 ms     (736 m%)
    tran: time = 778.1 ms    (77.8 %), step = 14.72 ms     (1.47 %)
    tran: time = 838.1 ms    (83.8 %), step = 20 ms           (2 %)
    tran: time = 887.8 ms    (88.8 %), step = 19.85 ms     (1.98 %)
    tran: time = 937.5 ms    (93.7 %), step = 20 ms           (2 %)
    tran: time = 977.5 ms    (97.7 %), step = 20 ms           (2 %)
Number of accepted tran steps =             2163

Notice from spectre during transient analysis `tran'.
    Trapezoidal ringing is detected during tran analysis.
        Please use method=trap for better results and performance.


Maximum value achieved for any signal of each quantity: 
V: V(Vdd) = 1.8 V
I: I(V1:p) = 1.912 A
If your circuit contains signals of the same quantity that are vastly different in size (such as high voltage circuitry combined with low voltage control circuitry), you should consider specifying global option `bin_relref=yes'.

~~~~~~~~~~~~~~~~~~~~~~~~~~~~~~~~~
Post-Transient Simulation Summary
~~~~~~~~~~~~~~~~~~~~~~~~~~~~~~~~~
   -   To further speed up simulation, consider
          add ++aps on command line
   -   Features that may significantly slowing down simulation
          iprobe = 18.18 % of total equations
~~~~~~~~~~~~~~~~~~~~~~~~~~~~~~~~~


During simulation, the CPU load for active processors is :
         0 (5.5 %)       1 (13.5 %)      2 (17.3 %)      3 (13.6 %)
         4 (12.7 %)      5 (10.9 %)      6 (8.4 %)       7 (11.0 %)
         8 (24.5 %)      9 (12.4 %)     10 (11.6 %)     11 (17.0 %)
        Total: 158.4%
Initial condition solution time: CPU = 3.701 ms, elapsed = 12.574 ms.
Intrinsic tran analysis time:    CPU = 109.109 ms, elapsed = 172.655 ms.
Total time required for tran analysis `tran': CPU = 121.881 ms, elapsed = 220.442 ms, util. = 55.3%.
Time accumulated: CPU = 673.528 ms, elapsed = 1.20853 s.
Peak resident memory used = 112 Mbytes.


Notice from spectre.
    95 notices suppressed.
    6 warnings suppressed.

finalTimeOP: writing operating point information to rawfile.

Opening the PSF file ../../../../../Documents/thesis/sebastian_thesis_repo/processing/cadence_extraction/output_data/10_hz_trial_2/psf/finalTimeOP.info ...
modelParameter: writing model parameter values to rawfile.

Opening the PSF file ../../../../../Documents/thesis/sebastian_thesis_repo/processing/cadence_extraction/output_data/10_hz_trial_2/psf/modelParameter.info ...
element: writing instance parameter values to rawfile.

Opening the PSF file ../../../../../Documents/thesis/sebastian_thesis_repo/processing/cadence_extraction/output_data/10_hz_trial_2/psf/element.info ...
outputParameter: writing output parameter values to rawfile.

Opening the PSF file ../../../../../Documents/thesis/sebastian_thesis_repo/processing/cadence_extraction/output_data/10_hz_trial_2/psf/outputParameter.info ...
designParamVals: writing netlist parameters to rawfile.

Opening the PSFASCII file ../../../../../Documents/thesis/sebastian_thesis_repo/processing/cadence_extraction/output_data/10_hz_trial_2/psf/designParamVals.info ...
primitives: writing primitives to rawfile.

Opening the PSFASCII file ../../../../../Documents/thesis/sebastian_thesis_repo/processing/cadence_extraction/output_data/10_hz_trial_2/psf/primitives.info.primitives ...
subckts: writing subcircuits to rawfile.

Opening the PSFASCII file ../../../../../Documents/thesis/sebastian_thesis_repo/processing/cadence_extraction/output_data/10_hz_trial_2/psf/subckts.info.subckts ...
Licensing Information:
Lic Summary:
[11:15:16.188145] Cdslmd servers:5280@lic009.workspace.rug.nl
[11:15:16.188168] Feature usage summary:
[11:15:16.188169] Virtuoso_Multi_mode_Simulation


Aggregate audit (11:15:16 AM, Tue May 12, 2026):
Time used: CPU = 729 ms, elapsed = 4.02 s, util. = 18.1%.
Time spent in licensing: elapsed = 64.7 ms.
Peak memory used = 114 Mbytes.
Simulation started at: 11:15:12 AM, Tue May 12, 2026, ended at: 11:15:16 AM, Tue May 12, 2026, with elapsed time (wall clock): 4.02 s.
spectre completes with 0 errors, 15 warnings, and 16 notices.
