
Spectre (R) Circuit Simulator
Version 23.1.0.327.isr4 64bit -- 9 Dec 2023
Copyright (C) 1989-2023 Cadence Design Systems, Inc. All rights reserved worldwide. Cadence and Spectre are registered trademarks of Cadence Design Systems, Inc. All others are the property of their respective holders.

Includes RSA BSAFE(R) Cryptographic or Security Protocol Software from RSA Security, Inc.

User: s5117909   Host: bics02   HostID: 7F0101   PID: 6556
Memory  available: 107.9487 GB  physical: 135.0280 GB
Linux   : CentOS Linux release 7 (Core)
CPU Type: Intel(R) Xeon(R) Gold 6150 CPU @ 2.70GHz
All processors running at 2693.7 MHz
        Socket: Processors
        0:       0,  1,  2,  3,  4,  5,  6,  7,  8,  9
                10, 11
        
System load averages (1min, 5min, 15min) : 22.6 %, 15.5 %, 12.5 %
HPC is enabled
This is a virtual machine


Simulating `input.scs' on bics02 at 10:21:01 AM, Tue May 12, 2026 (process id: 6556).
Current working directory: /home/s5117909/simulation/dynapsetb1/spectre/schematic/netlist
Command line:
    /projects/bics/cadence/installs/SPECTRE231/tools.lnx86/bin/spectre  \
        -64 input.scs +escchars +log  \
        ../../../../../Documents/thesis/sebastian_thesis_repo/processing/cadence_extraction/output_data/test_st1_20hz_trial1_st2_80hz_trial1/psf/spectre.out  \
        +inter=mpsc +mpssession=spectre1_3953_1 -format psfxl -raw  \
        ../../../../../Documents/thesis/sebastian_thesis_repo/processing/cadence_extraction/output_data/test_st1_20hz_trial1_st2_80hz_trial1/psf  \
        +aps +mt +lqtimeout 900 -maxw 5 -maxn 5 -env ade  \
        +adespetkn=adespe
spectre pid = 6556

Licensing Information:
[10:21:01.084777] Configured Lic search path (22.01-s002): 5280@lic009.workspace.rug.nl

Licensing Information:
[10:21:01.223418] Periodic Lic check successful

Loading /projects/bics/cadence/installs/SPECTRE231/tools.lnx86/cmi/lib/64bit/5.0/libinfineon_sh.so ...
Loading /projects/bics/cadence/installs/SPECTRE231/tools.lnx86/cmi/lib/64bit/5.0/libphilips_I_sh.so ...
Loading /projects/bics/cadence/installs/SPECTRE231/tools.lnx86/cmi/lib/64bit/5.0/libphilips_sh.so ...
Loading /projects/bics/cadence/installs/SPECTRE231/tools.lnx86/cmi/lib/64bit/5.0/libsparam_sh.so ...
Loading /projects/bics/cadence/installs/SPECTRE231/tools.lnx86/cmi/lib/64bit/5.0/libstmodels_sh.so ...
Reading file:  /home/s5117909/simulation/dynapsetb1/spectre/schematic/netlist/input.scs
Reading file:  /projects/bics/cadence/installs/SPECTRE231/tools.lnx86/spectre/etc/configs/spectre.cfg
Reading file:  /home/s5117909/simulation/dynapsetb1/spectre/schematic/netlist/ade_e.scs
Reading file:  /projects/bics/designkits/xfab/xp018/cadence/v8_0/spectre/v8_0_1/lp5mos/config.scs
Reading file:  /projects/bics/designkits/xfab/xp018/cadence/v8_0/spectre/v8_0_1/lp5mos/param.scs
Reading file:  /projects/bics/designkits/xfab/xp018/cadence/v8_0/spectre/v8_0_1/lp5mos/bip.scs
Reading file:  /projects/bics/designkits/xfab/xp018/cadence/v8_0/spectre/v8_0_1/lp5mos/models/bip/tm_bip.scs
Reading file:  /projects/bics/designkits/xfab/xp018/cadence/v8_0/spectre/v8_0_1/lp5mos/models/bip/qpva.scs
Reading file:  /projects/bics/designkits/xfab/xp018/cadence/v8_0/spectre/v8_0_1/lp5mos/models/bip/qpvb.scs
Reading file:  /projects/bics/designkits/xfab/xp018/cadence/v8_0/spectre/v8_0_1/lp5mos/models/bip/qpvc.scs
Reading file:  /projects/bics/designkits/xfab/xp018/cadence/v8_0/spectre/v8_0_1/lp5mos/models/bip/qpva5.scs
Reading file:  /projects/bics/designkits/xfab/xp018/cadence/v8_0/spectre/v8_0_1/lp5mos/models/bip/qpvb5.scs
Reading file:  /projects/bics/designkits/xfab/xp018/cadence/v8_0/spectre/v8_0_1/lp5mos/models/bip/qpvc5.scs
Reading file:  /projects/bics/designkits/xfab/xp018/cadence/v8_0/spectre/v8_0_1/lp5mos/models/bip/qnva.scs
Reading file:  /projects/bics/designkits/xfab/xp018/cadence/v8_0/spectre/v8_0_1/lp5mos/models/bip/qnva5.scs
Reading file:  /projects/bics/designkits/xfab/xp018/cadence/v8_0/spectre/v8_0_1/lp5mos/models/bip/qnvb.scs
Reading file:  /projects/bics/designkits/xfab/xp018/cadence/v8_0/spectre/v8_0_1/lp5mos/models/bip/qpvh.scs
Reading file:  /projects/bics/designkits/xfab/xp018/cadence/v8_0/spectre/v8_0_1/lp5mos/models/bip/qpvhascr.scs
Reading file:  /projects/bics/designkits/xfab/xp018/cadence/v8_0/spectre/v8_0_1/lp5mos/models/bip/qnvc.scs
Reading file:  /projects/bics/designkits/xfab/xp018/cadence/v8_0/spectre/v8_0_1/lp5mos/models/bip/qnvca.scs
Reading file:  /projects/bics/designkits/xfab/xp018/cadence/v8_0/spectre/v8_0_1/lp5mos/models/bip/qnvcra.scs
Reading file:  /projects/bics/designkits/xfab/xp018/cadence/v8_0/spectre/v8_0_1/lp5mos/models/bip/qnvcrb.scs
Reading file:  /projects/bics/designkits/xfab/xp018/cadence/v8_0/spectre/v8_0_1/lp5mos/models/bip/qpv_pa.scs
Reading file:  /projects/bics/designkits/xfab/xp018/cadence/v8_0/spectre/v8_0_1/lp5mos/models/bip/qpv_pb.scs
Reading file:  /projects/bics/designkits/xfab/xp018/cadence/v8_0/spectre/v8_0_1/lp5mos/models/bip/qpv_pc.scs
Reading file:  /projects/bics/designkits/xfab/xp018/cadence/v8_0/spectre/v8_0_1/lp5mos/models/bip/qpv_pd.scs
Reading file:  /projects/bics/designkits/xfab/xp018/cadence/v8_0/spectre/v8_0_1/lp5mos/models/bip/qpv_pe.scs
Reading file:  /projects/bics/designkits/xfab/xp018/cadence/v8_0/spectre/v8_0_1/lp5mos/models/bip/qpv_pf.scs
Reading file:  /projects/bics/designkits/xfab/xp018/cadence/v8_0/spectre/v8_0_1/lp5mos/models/bip/qpv_pf2.scs
Reading file:  /projects/bics/designkits/xfab/xp018/cadence/v8_0/spectre/v8_0_1/lp5mos/models/bip/qpv_pg.scs
Reading file:  /projects/bics/designkits/xfab/xp018/cadence/v8_0/spectre/v8_0_1/lp5mos/models/bip/qnl_pa.scs
Reading file:  /projects/bics/designkits/xfab/xp018/cadence/v8_0/spectre/v8_0_1/lp5mos/models/bip/qnl_pb.scs
Reading file:  /projects/bics/designkits/xfab/xp018/cadence/v8_0/spectre/v8_0_1/lp5mos/models/bip/qpl_pa.scs
Reading file:  /projects/bics/designkits/xfab/xp018/cadence/v8_0/spectre/v8_0_1/lp5mos/models/bip/qpl_pb.scs
Reading file:  /projects/bics/designkits/xfab/xp018/cadence/v8_0/spectre/v8_0_1/lp5mos/models/bip/qpv_ndia.scs
Reading file:  /projects/bics/designkits/xfab/xp018/cadence/v8_0/spectre/v8_0_1/lp5mos/models/bip/qnv_ndia.scs
Reading file:  /projects/bics/designkits/xfab/xp018/cadence/v8_0/spectre/v8_0_1/lp5mos/models/bip/qpv_ndib.scs
Reading file:  /projects/bics/designkits/xfab/xp018/cadence/v8_0/spectre/v8_0_1/lp5mos/models/bip/qnv_ndib.scs
Reading file:  /projects/bics/designkits/xfab/xp018/cadence/v8_0/spectre/v8_0_1/lp5mos/models/bip/qpv_nhva.scs
Reading file:  /projects/bics/designkits/xfab/xp018/cadence/v8_0/spectre/v8_0_1/lp5mos/models/bip/qpv_nhvb.scs
Reading file:  /projects/bics/designkits/xfab/xp018/cadence/v8_0/spectre/v8_0_1/lp5mos/models/bip/qpv_phva.scs
Reading file:  /projects/bics/designkits/xfab/xp018/cadence/v8_0/spectre/v8_0_1/lp5mos/models/bip/qpv_phvb.scs
Reading file:  /projects/bics/designkits/xfab/xp018/cadence/v8_0/spectre/v8_0_1/lp5mos/cap.scs
Reading file:  /projects/bics/designkits/xfab/xp018/cadence/v8_0/spectre/v8_0_1/lp5mos/models/cap/tm_cap.scs
Reading file:  /projects/bics/designkits/xfab/xp018/cadence/v8_0/spectre/v8_0_1/lp5mos/models/cap/csandwt3.scs
Reading file:  /projects/bics/designkits/xfab/xp018/cadence/v8_0/spectre/v8_0_1/lp5mos/models/cap/csandwt4.scs
Reading file:  /projects/bics/designkits/xfab/xp018/cadence/v8_0/spectre/v8_0_1/lp5mos/models/cap/csandwt5.scs
Reading file:  /projects/bics/designkits/xfab/xp018/cadence/v8_0/spectre/v8_0_1/lp5mos/models/cap/csf2p.scs
Reading file:  /projects/bics/designkits/xfab/xp018/cadence/v8_0/spectre/v8_0_1/lp5mos/models/cap/csf3p.scs
Reading file:  /projects/bics/designkits/xfab/xp018/cadence/v8_0/spectre/v8_0_1/lp5mos/models/cap/csf3.scs
Reading file:  /projects/bics/designkits/xfab/xp018/cadence/v8_0/spectre/v8_0_1/lp5mos/models/cap/csf4.scs
Reading file:  /projects/bics/designkits/xfab/xp018/cadence/v8_0/spectre/v8_0_1/lp5mos/models/cap/csf5.scs
Reading file:  /projects/bics/designkits/xfab/xp018/cadence/v8_0/spectre/v8_0_1/lp5mos/models/cap/csft4.scs
Reading file:  /projects/bics/designkits/xfab/xp018/cadence/v8_0/spectre/v8_0_1/lp5mos/models/cap/csft5.scs
Reading file:  /projects/bics/designkits/xfab/xp018/cadence/v8_0/spectre/v8_0_1/lp5mos/models/cap/csft6.scs
Reading file:  /projects/bics/designkits/xfab/xp018/cadence/v8_0/spectre/v8_0_1/lp5mos/models/cap/csf3a.scs
Reading file:  /projects/bics/designkits/xfab/xp018/cadence/v8_0/spectre/v8_0_1/lp5mos/models/cap/csf4a.scs
Reading file:  /projects/bics/designkits/xfab/xp018/cadence/v8_0/spectre/v8_0_1/lp5mos/models/cap/csf5a.scs
Reading file:  /projects/bics/designkits/xfab/xp018/cadence/v8_0/spectre/v8_0_1/lp5mos/models/cap/csft4a.scs
Reading file:  /projects/bics/designkits/xfab/xp018/cadence/v8_0/spectre/v8_0_1/lp5mos/models/cap/csft5a.scs
Reading file:  /projects/bics/designkits/xfab/xp018/cadence/v8_0/spectre/v8_0_1/lp5mos/models/cap/csft6a.scs
Reading file:  /projects/bics/designkits/xfab/xp018/cadence/v8_0/spectre/v8_0_1/lp5mos/models/cap/cmm3.scs
Reading file:  /projects/bics/designkits/xfab/xp018/cadence/v8_0/spectre/v8_0_1/lp5mos/models/cap/cmm3t.scs
Reading file:  /projects/bics/designkits/xfab/xp018/cadence/v8_0/spectre/v8_0_1/lp5mos/models/cap/cmm4.scs
Reading file:  /projects/bics/designkits/xfab/xp018/cadence/v8_0/spectre/v8_0_1/lp5mos/models/cap/cmm4t.scs
Reading file:  /projects/bics/designkits/xfab/xp018/cadence/v8_0/spectre/v8_0_1/lp5mos/models/cap/cmm5.scs
Reading file:  /projects/bics/designkits/xfab/xp018/cadence/v8_0/spectre/v8_0_1/lp5mos/models/cap/cmm5t.scs
Reading file:  /projects/bics/designkits/xfab/xp018/cadence/v8_0/spectre/v8_0_1/lp5mos/models/cap/cmm6t.scs
Reading file:  /projects/bics/designkits/xfab/xp018/cadence/v8_0/spectre/v8_0_1/lp5mos/models/cap/cmmh3.scs
Reading file:  /projects/bics/designkits/xfab/xp018/cadence/v8_0/spectre/v8_0_1/lp5mos/models/cap/cmmh3t.scs
Reading file:  /projects/bics/designkits/xfab/xp018/cadence/v8_0/spectre/v8_0_1/lp5mos/models/cap/cmmh3l.scs
Reading file:  /projects/bics/designkits/xfab/xp018/cadence/v8_0/spectre/v8_0_1/lp5mos/models/cap/cmmh4.scs
Reading file:  /projects/bics/designkits/xfab/xp018/cadence/v8_0/spectre/v8_0_1/lp5mos/models/cap/cmmh4t.scs
Reading file:  /projects/bics/designkits/xfab/xp018/cadence/v8_0/spectre/v8_0_1/lp5mos/models/cap/cmmh4l.scs
Reading file:  /projects/bics/designkits/xfab/xp018/cadence/v8_0/spectre/v8_0_1/lp5mos/models/cap/cmmh5.scs
Reading file:  /projects/bics/designkits/xfab/xp018/cadence/v8_0/spectre/v8_0_1/lp5mos/models/cap/cmmh5t.scs
Reading file:  /projects/bics/designkits/xfab/xp018/cadence/v8_0/spectre/v8_0_1/lp5mos/models/cap/cmmh5l.scs
Reading file:  /projects/bics/designkits/xfab/xp018/cadence/v8_0/spectre/v8_0_1/lp5mos/models/cap/cmmh6t.scs
Reading file:  /projects/bics/designkits/xfab/xp018/cadence/v8_0/spectre/v8_0_1/lp5mos/models/cap/cmmh6l.scs
Reading file:  /projects/bics/designkits/xfab/xp018/cadence/v8_0/spectre/v8_0_1/lp5mos/models/cap/cdmm4.scs
Reading file:  /projects/bics/designkits/xfab/xp018/cadence/v8_0/spectre/v8_0_1/lp5mos/models/cap/cdmm4t.scs
Reading file:  /projects/bics/designkits/xfab/xp018/cadence/v8_0/spectre/v8_0_1/lp5mos/models/cap/cdmmh4.scs
Reading file:  /projects/bics/designkits/xfab/xp018/cadence/v8_0/spectre/v8_0_1/lp5mos/models/cap/cdmmh4t.scs
Reading file:  /projects/bics/designkits/xfab/xp018/cadence/v8_0/spectre/v8_0_1/lp5mos/models/cap/cdmm5.scs
Reading file:  /projects/bics/designkits/xfab/xp018/cadence/v8_0/spectre/v8_0_1/lp5mos/models/cap/cdmm5t.scs
Reading file:  /projects/bics/designkits/xfab/xp018/cadence/v8_0/spectre/v8_0_1/lp5mos/models/cap/cdmmh5.scs
Reading file:  /projects/bics/designkits/xfab/xp018/cadence/v8_0/spectre/v8_0_1/lp5mos/models/cap/cdmmh5t.scs
Reading file:  /projects/bics/designkits/xfab/xp018/cadence/v8_0/spectre/v8_0_1/lp5mos/models/cap/cdmm6t.scs
Reading file:  /projects/bics/designkits/xfab/xp018/cadence/v8_0/spectre/v8_0_1/lp5mos/models/cap/cdmmh6t.scs
Reading file:  /projects/bics/designkits/xfab/xp018/cadence/v8_0/spectre/v8_0_1/lp5mos/models/cap/ctmm5.scs
Reading file:  /projects/bics/designkits/xfab/xp018/cadence/v8_0/spectre/v8_0_1/lp5mos/models/cap/ctmm5t.scs
Reading file:  /projects/bics/designkits/xfab/xp018/cadence/v8_0/spectre/v8_0_1/lp5mos/models/cap/ctmmh5.scs
Reading file:  /projects/bics/designkits/xfab/xp018/cadence/v8_0/spectre/v8_0_1/lp5mos/models/cap/ctmmh5t.scs
Reading file:  /projects/bics/designkits/xfab/xp018/cadence/v8_0/spectre/v8_0_1/lp5mos/models/cap/ctmm6t.scs
Reading file:  /projects/bics/designkits/xfab/xp018/cadence/v8_0/spectre/v8_0_1/lp5mos/models/cap/ctmmh6t.scs
Reading file:  /projects/bics/designkits/xfab/xp018/cadence/v8_0/spectre/v8_0_1/lp5mos/models/cap/cp1sub.scs
Reading file:  /projects/bics/designkits/xfab/xp018/cadence/v8_0/spectre/v8_0_1/lp5mos/models/cap/cp1suba.scs
Reading file:  /projects/bics/designkits/xfab/xp018/cadence/v8_0/spectre/v8_0_1/lp5mos/models/cap/cp1subp.scs
Reading file:  /projects/bics/designkits/xfab/xp018/cadence/v8_0/spectre/v8_0_1/lp5mos/models/cap/p_cap.scs
Reading file:  /projects/bics/designkits/xfab/xp018/cadence/v8_0/spectre/v8_0_1/lp5mos/models/cap/oc_m60v_60v.scs
Reading file:  /projects/bics/designkits/xfab/xp018/cadence/v8_0/spectre/v8_0_1/lp5mos/models/cap/mosvc.scs
Reading file:  /projects/bics/designkits/xfab/xp018/cadence/v8_0/spectre/v8_0_1/lp5mos/models/cap/mosvc_pmos.scs
Reading file:  /projects/bics/designkits/xfab/xp018/cadence/v8_0/spectre/v8_0_1/lp5mos/models/cap/mosvci_a.scs
Reading file:  /projects/bics/designkits/xfab/xp018/cadence/v8_0/spectre/v8_0_1/lp5mos/models/cap/mosvci_b.scs
Reading file:  /projects/bics/designkits/xfab/xp018/cadence/v8_0/spectre/v8_0_1/lp5mos/models/cap/mosvci_d.scs
Reading file:  /projects/bics/designkits/xfab/xp018/cadence/v8_0/spectre/v8_0_1/lp5mos/models/cap/mosvci_m.scs
Reading file:  /projects/bics/designkits/xfab/xp018/cadence/v8_0/spectre/v8_0_1/lp5mos/models/cap/mosvci_nmos.scs
Reading file:  /projects/bics/designkits/xfab/xp018/cadence/v8_0/spectre/v8_0_1/lp5mos/models/cap/mosvc5.scs
Reading file:  /projects/bics/designkits/xfab/xp018/cadence/v8_0/spectre/v8_0_1/lp5mos/models/cap/mosvc5_pmos.scs
Reading file:  /projects/bics/designkits/xfab/xp018/cadence/v8_0/spectre/v8_0_1/lp5mos/models/cap/mosvc5i_a.scs
Reading file:  /projects/bics/designkits/xfab/xp018/cadence/v8_0/spectre/v8_0_1/lp5mos/models/cap/mosvc5i_b.scs
Reading file:  /projects/bics/designkits/xfab/xp018/cadence/v8_0/spectre/v8_0_1/lp5mos/models/cap/mosvc5i_d.scs
Reading file:  /projects/bics/designkits/xfab/xp018/cadence/v8_0/spectre/v8_0_1/lp5mos/models/cap/mosvc5i_m.scs
Reading file:  /projects/bics/designkits/xfab/xp018/cadence/v8_0/spectre/v8_0_1/lp5mos/models/cap/mosvc5i_nmos.scs
Reading file:  /projects/bics/designkits/xfab/xp018/cadence/v8_0/spectre/v8_0_1/lp5mos/models/cap/tag_25v.scs
Reading file:  /projects/bics/designkits/xfab/xp018/cadence/v8_0/spectre/v8_0_1/lp5mos/models/cap/tag_60v.scs
Reading file:  /projects/bics/designkits/xfab/xp018/cadence/v8_0/spectre/v8_0_1/lp5mos/models/cap/tag_100v.scs
Reading file:  /projects/bics/designkits/xfab/xp018/cadence/v8_0/spectre/v8_0_1/lp5mos/models/cap/tag_m25v.scs
Reading file:  /projects/bics/designkits/xfab/xp018/cadence/v8_0/spectre/v8_0_1/lp5mos/models/cap/tag_m60v.scs
Reading file:  /projects/bics/designkits/xfab/xp018/cadence/v8_0/spectre/v8_0_1/lp5mos/models/cap/tag_m100v.scs
Reading file:  /projects/bics/designkits/xfab/xp018/cadence/v8_0/spectre/v8_0_1/lp5mos/dio.scs
Reading file:  /projects/bics/designkits/xfab/xp018/cadence/v8_0/spectre/v8_0_1/lp5mos/models/dio/tm_dio.scs
Reading file:  /projects/bics/designkits/xfab/xp018/cadence/v8_0/spectre/v8_0_1/lp5mos/models/dio/dn.scs
Reading file:  /projects/bics/designkits/xfab/xp018/cadence/v8_0/spectre/v8_0_1/lp5mos/models/dio/dnn.scs
Reading file:  /projects/bics/designkits/xfab/xp018/cadence/v8_0/spectre/v8_0_1/lp5mos/models/dio/dp.scs
Reading file:  /projects/bics/designkits/xfab/xp018/cadence/v8_0/spectre/v8_0_1/lp5mos/models/dio/dnw.scs
Reading file:  /projects/bics/designkits/xfab/xp018/cadence/v8_0/spectre/v8_0_1/lp5mos/models/dio/dn5.scs
Reading file:  /projects/bics/designkits/xfab/xp018/cadence/v8_0/spectre/v8_0_1/lp5mos/models/dio/dnn5.scs
Reading file:  /projects/bics/designkits/xfab/xp018/cadence/v8_0/spectre/v8_0_1/lp5mos/models/dio/dp5.scs
Reading file:  /projects/bics/designkits/xfab/xp018/cadence/v8_0/spectre/v8_0_1/lp5mos/models/dio/dnw5.scs
Reading file:  /projects/bics/designkits/xfab/xp018/cadence/v8_0/spectre/v8_0_1/lp5mos/models/dio/ddnwmv.scs
Reading file:  /projects/bics/designkits/xfab/xp018/cadence/v8_0/spectre/v8_0_1/lp5mos/models/dio/ddnw15.scs
Reading file:  /projects/bics/designkits/xfab/xp018/cadence/v8_0/spectre/v8_0_1/lp5mos/models/dio/ddnw25.scs
Reading file:  /projects/bics/designkits/xfab/xp018/cadence/v8_0/spectre/v8_0_1/lp5mos/models/dio/ddnw60.scs
Reading file:  /projects/bics/designkits/xfab/xp018/cadence/v8_0/spectre/v8_0_1/lp5mos/models/dio/dpdnwmv.scs
Reading file:  /projects/bics/designkits/xfab/xp018/cadence/v8_0/spectre/v8_0_1/lp5mos/models/dio/dpdnw15.scs
Reading file:  /projects/bics/designkits/xfab/xp018/cadence/v8_0/spectre/v8_0_1/lp5mos/models/dio/dpdnw25.scs
Reading file:  /projects/bics/designkits/xfab/xp018/cadence/v8_0/spectre/v8_0_1/lp5mos/models/dio/dpdnw60.scs
Reading file:  /projects/bics/designkits/xfab/xp018/cadence/v8_0/spectre/v8_0_1/lp5mos/models/dio/dipdnwmv.scs
Reading file:  /projects/bics/designkits/xfab/xp018/cadence/v8_0/spectre/v8_0_1/lp5mos/models/dio/dipdnw15.scs
Reading file:  /projects/bics/designkits/xfab/xp018/cadence/v8_0/spectre/v8_0_1/lp5mos/models/dio/dipdnw25.scs
Reading file:  /projects/bics/designkits/xfab/xp018/cadence/v8_0/spectre/v8_0_1/lp5mos/models/dio/dipdnw60.scs
Reading file:  /projects/bics/designkits/xfab/xp018/cadence/v8_0/spectre/v8_0_1/lp5mos/models/dio/dipdnwmvz.scs
Reading file:  /projects/bics/designkits/xfab/xp018/cadence/v8_0/spectre/v8_0_1/lp5mos/models/dio/dipdnw15z.scs
Reading file:  /projects/bics/designkits/xfab/xp018/cadence/v8_0/spectre/v8_0_1/lp5mos/models/dio/dipdnw25z.scs
Reading file:  /projects/bics/designkits/xfab/xp018/cadence/v8_0/spectre/v8_0_1/lp5mos/models/dio/dipdnw60z.scs
Reading file:  /projects/bics/designkits/xfab/xp018/cadence/v8_0/spectre/v8_0_1/lp5mos/models/dio/dnp.scs
Reading file:  /projects/bics/designkits/xfab/xp018/cadence/v8_0/spectre/v8_0_1/lp5mos/models/dio/dpp.scs
Reading file:  /projects/bics/designkits/xfab/xp018/cadence/v8_0/spectre/v8_0_1/lp5mos/models/dio/dsa.scs
Reading file:  /projects/bics/designkits/xfab/xp018/cadence/v8_0/spectre/v8_0_1/lp5mos/models/dio/dsaa.scs
Reading file:  /projects/bics/designkits/xfab/xp018/cadence/v8_0/spectre/v8_0_1/lp5mos/models/dio/dsaa_qp1.scs
Reading file:  /projects/bics/designkits/xfab/xp018/cadence/v8_0/spectre/v8_0_1/lp5mos/models/dio/dsb.scs
Reading file:  /projects/bics/designkits/xfab/xp018/cadence/v8_0/spectre/v8_0_1/lp5mos/models/dio/dsba.scs
Reading file:  /projects/bics/designkits/xfab/xp018/cadence/v8_0/spectre/v8_0_1/lp5mos/models/dio/dsba_qp1.scs
Reading file:  /projects/bics/designkits/xfab/xp018/cadence/v8_0/spectre/v8_0_1/lp5mos/models/dio/dndd.scs
Reading file:  /projects/bics/designkits/xfab/xp018/cadence/v8_0/spectre/v8_0_1/lp5mos/models/dio/dpdddnw.scs
Reading file:  /projects/bics/designkits/xfab/xp018/cadence/v8_0/spectre/v8_0_1/lp5mos/models/dio/dpdddnw_esd.scs
Reading file:  /projects/bics/designkits/xfab/xp018/cadence/v8_0/spectre/v8_0_1/lp5mos/models/dio/dpddipdnw_esd.scs
Reading file:  /projects/bics/designkits/xfab/xp018/cadence/v8_0/spectre/v8_0_1/lp5mos/models/dio/dnddpb.scs
Reading file:  /projects/bics/designkits/xfab/xp018/cadence/v8_0/spectre/v8_0_1/lp5mos/models/dio/dvdnw.scs
Reading file:  /projects/bics/designkits/xfab/xp018/cadence/v8_0/spectre/v8_0_1/lp5mos/models/dio/dvdnw_esd.scs
Reading file:  /projects/bics/designkits/xfab/xp018/cadence/v8_0/spectre/v8_0_1/lp5mos/models/dio/ddpbvdnw.scs
Reading file:  /projects/bics/designkits/xfab/xp018/cadence/v8_0/spectre/v8_0_1/lp5mos/models/dio/dpd2dnw.scs
Reading file:  /projects/bics/designkits/xfab/xp018/cadence/v8_0/spectre/v8_0_1/lp5mos/models/dio/dndddpb.scs
Reading file:  /projects/bics/designkits/xfab/xp018/cadence/v8_0/spectre/v8_0_1/lp5mos/models/dio/dpddvdnw_esd.scs
Reading file:  /projects/bics/designkits/xfab/xp018/cadence/v8_0/spectre/v8_0_1/lp5mos/models/dio/dpburvdnw.scs
Reading file:  /projects/bics/designkits/xfab/xp018/cadence/v8_0/spectre/v8_0_1/lp5mos/models/dio/dpddvdnw.scs
Reading file:  /projects/bics/designkits/xfab/xp018/cadence/v8_0/spectre/v8_0_1/lp5mos/models/dio/dpddipvdnw_esd.scs
Reading file:  /projects/bics/designkits/xfab/xp018/cadence/v8_0/spectre/v8_0_1/lp5mos/models/dio/dn5nm.scs
Reading file:  /projects/bics/designkits/xfab/xp018/cadence/v8_0/spectre/v8_0_1/lp5mos/models/dio/dp5pm.scs
Reading file:  /projects/bics/designkits/xfab/xp018/cadence/v8_0/spectre/v8_0_1/lp5mos/models/dio/dza_a.scs
Reading file:  /projects/bics/designkits/xfab/xp018/cadence/v8_0/spectre/v8_0_1/lp5mos/models/dio/dza_b.scs
Reading file:  /projects/bics/designkits/xfab/xp018/cadence/v8_0/spectre/v8_0_1/lp5mos/models/dio/dza_d.scs
Reading file:  /projects/bics/designkits/xfab/xp018/cadence/v8_0/spectre/v8_0_1/lp5mos/models/dio/dza_m.scs
Reading file:  /projects/bics/designkits/xfab/xp018/cadence/v8_0/spectre/v8_0_1/lp5mos/models/dio/dzb_a.scs
Reading file:  /projects/bics/designkits/xfab/xp018/cadence/v8_0/spectre/v8_0_1/lp5mos/models/dio/dzb_b.scs
Reading file:  /projects/bics/designkits/xfab/xp018/cadence/v8_0/spectre/v8_0_1/lp5mos/models/dio/dzb_d.scs
Reading file:  /projects/bics/designkits/xfab/xp018/cadence/v8_0/spectre/v8_0_1/lp5mos/models/dio/dzb_m.scs
Reading file:  /projects/bics/designkits/xfab/xp018/cadence/v8_0/spectre/v8_0_1/lp5mos/models/dio/dzc.scs
Reading file:  /projects/bics/designkits/xfab/xp018/cadence/v8_0/spectre/v8_0_1/lp5mos/models/dio/ddnwnvm.scs
Reading file:  /projects/bics/designkits/xfab/xp018/cadence/v8_0/spectre/v8_0_1/lp5mos/models/dio/dipdnwnvm.scs
Reading file:  /projects/bics/designkits/xfab/xp018/cadence/v8_0/spectre/v8_0_1/lp5mos/models/dio/dpdnwnvm.scs
Reading file:  /projects/bics/designkits/xfab/xp018/cadence/v8_0/spectre/v8_0_1/lp5mos/models/dio/dpsdnwnvm.scs
Reading file:  /projects/bics/designkits/xfab/xp018/cadence/v8_0/spectre/v8_0_1/lp5mos/models/dio/dpsdnwmv.scs
Reading file:  /projects/bics/designkits/xfab/xp018/cadence/v8_0/spectre/v8_0_1/lp5mos/models/dio/dn5ps.scs
Reading file:  /projects/bics/designkits/xfab/xp018/cadence/v8_0/spectre/v8_0_1/lp5mos/mos.scs
Reading file:  /projects/bics/designkits/xfab/xp018/cadence/v8_0/spectre/v8_0_1/lp5mos/models/mos/tm_mos.scs
Reading file:  /projects/bics/designkits/xfab/xp018/cadence/v8_0/spectre/v8_0_1/lp5mos/models/mos/ne.scs
Reading file:  /projects/bics/designkits/xfab/xp018/cadence/v8_0/spectre/v8_0_1/lp5mos/models/mos/pe.scs
Reading file:  /projects/bics/designkits/xfab/xp018/cadence/v8_0/spectre/v8_0_1/lp5mos/models/mos/pe_5.scs
Reading file:  /projects/bics/designkits/xfab/xp018/cadence/v8_0/spectre/v8_0_1/lp5mos/models/mos/nn.scs
Reading file:  /projects/bics/designkits/xfab/xp018/cadence/v8_0/spectre/v8_0_1/lp5mos/models/mos/nei.scs
Reading file:  /projects/bics/designkits/xfab/xp018/cadence/v8_0/spectre/v8_0_1/lp5mos/models/mos/nei_m_6.scs
Reading file:  /projects/bics/designkits/xfab/xp018/cadence/v8_0/spectre/v8_0_1/lp5mos/models/mos/nei_a_6.scs
Reading file:  /projects/bics/designkits/xfab/xp018/cadence/v8_0/spectre/v8_0_1/lp5mos/models/mos/nei_b_6.scs
Reading file:  /projects/bics/designkits/xfab/xp018/cadence/v8_0/spectre/v8_0_1/lp5mos/models/mos/nei_d_6.scs
Reading file:  /projects/bics/designkits/xfab/xp018/cadence/v8_0/spectre/v8_0_1/lp5mos/models/mos/pei.scs
Reading file:  /projects/bics/designkits/xfab/xp018/cadence/v8_0/spectre/v8_0_1/lp5mos/models/mos/pei_m_5.scs
Reading file:  /projects/bics/designkits/xfab/xp018/cadence/v8_0/spectre/v8_0_1/lp5mos/models/mos/pei_a_5.scs
Reading file:  /projects/bics/designkits/xfab/xp018/cadence/v8_0/spectre/v8_0_1/lp5mos/models/mos/pei_b_5.scs
Reading file:  /projects/bics/designkits/xfab/xp018/cadence/v8_0/spectre/v8_0_1/lp5mos/models/mos/pei_d_5.scs
Reading file:  /projects/bics/designkits/xfab/xp018/cadence/v8_0/spectre/v8_0_1/lp5mos/models/mos/pei_n_5.scs
Reading file:  /projects/bics/designkits/xfab/xp018/cadence/v8_0/spectre/v8_0_1/lp5mos/models/mos/nel.scs
Reading file:  /projects/bics/designkits/xfab/xp018/cadence/v8_0/spectre/v8_0_1/lp5mos/models/mos/pel.scs
Reading file:  /projects/bics/designkits/xfab/xp018/cadence/v8_0/spectre/v8_0_1/lp5mos/models/mos/pel_5.scs
Reading file:  /projects/bics/designkits/xfab/xp018/cadence/v8_0/spectre/v8_0_1/lp5mos/models/mos/neli.scs
Reading file:  /projects/bics/designkits/xfab/xp018/cadence/v8_0/spectre/v8_0_1/lp5mos/models/mos/neli_m_6.scs
Reading file:  /projects/bics/designkits/xfab/xp018/cadence/v8_0/spectre/v8_0_1/lp5mos/models/mos/neli_a_6.scs
Reading file:  /projects/bics/designkits/xfab/xp018/cadence/v8_0/spectre/v8_0_1/lp5mos/models/mos/neli_b_6.scs
Reading file:  /projects/bics/designkits/xfab/xp018/cadence/v8_0/spectre/v8_0_1/lp5mos/models/mos/neli_d_6.scs
Reading file:  /projects/bics/designkits/xfab/xp018/cadence/v8_0/spectre/v8_0_1/lp5mos/models/mos/neli_n_6.scs
Reading file:  /projects/bics/designkits/xfab/xp018/cadence/v8_0/spectre/v8_0_1/lp5mos/models/mos/peli.scs
Reading file:  /projects/bics/designkits/xfab/xp018/cadence/v8_0/spectre/v8_0_1/lp5mos/models/mos/peli_m_5.scs
Reading file:  /projects/bics/designkits/xfab/xp018/cadence/v8_0/spectre/v8_0_1/lp5mos/models/mos/peli_a_5.scs
Reading file:  /projects/bics/designkits/xfab/xp018/cadence/v8_0/spectre/v8_0_1/lp5mos/models/mos/peli_b_5.scs
Reading file:  /projects/bics/designkits/xfab/xp018/cadence/v8_0/spectre/v8_0_1/lp5mos/models/mos/peli_d_5.scs
Reading file:  /projects/bics/designkits/xfab/xp018/cadence/v8_0/spectre/v8_0_1/lp5mos/models/mos/peli_n_5.scs
Reading file:  /projects/bics/designkits/xfab/xp018/cadence/v8_0/spectre/v8_0_1/lp5mos/models/mos/nesvt.scs
Reading file:  /projects/bics/designkits/xfab/xp018/cadence/v8_0/spectre/v8_0_1/lp5mos/models/mos/nesvti.scs
Reading file:  /projects/bics/designkits/xfab/xp018/cadence/v8_0/spectre/v8_0_1/lp5mos/models/mos/nesvti_m_6.scs
Reading file:  /projects/bics/designkits/xfab/xp018/cadence/v8_0/spectre/v8_0_1/lp5mos/models/mos/nesvti_a_6.scs
Reading file:  /projects/bics/designkits/xfab/xp018/cadence/v8_0/spectre/v8_0_1/lp5mos/models/mos/nesvti_b_6.scs
Reading file:  /projects/bics/designkits/xfab/xp018/cadence/v8_0/spectre/v8_0_1/lp5mos/models/mos/nesvti_d_6.scs
Reading file:  /projects/bics/designkits/xfab/xp018/cadence/v8_0/spectre/v8_0_1/lp5mos/models/mos/nesvti_n_6.scs
Reading file:  /projects/bics/designkits/xfab/xp018/cadence/v8_0/spectre/v8_0_1/lp5mos/models/mos/pesvt.scs
Reading file:  /projects/bics/designkits/xfab/xp018/cadence/v8_0/spectre/v8_0_1/lp5mos/models/mos/pesvt_5.scs
Reading file:  /projects/bics/designkits/xfab/xp018/cadence/v8_0/spectre/v8_0_1/lp5mos/models/mos/pesvti.scs
Reading file:  /projects/bics/designkits/xfab/xp018/cadence/v8_0/spectre/v8_0_1/lp5mos/models/mos/pesvti_m_5.scs
Reading file:  /projects/bics/designkits/xfab/xp018/cadence/v8_0/spectre/v8_0_1/lp5mos/models/mos/pesvti_a_5.scs
Reading file:  /projects/bics/designkits/xfab/xp018/cadence/v8_0/spectre/v8_0_1/lp5mos/models/mos/pesvti_b_5.scs
Reading file:  /projects/bics/designkits/xfab/xp018/cadence/v8_0/spectre/v8_0_1/lp5mos/models/mos/pesvti_d_5.scs
Reading file:  /projects/bics/designkits/xfab/xp018/cadence/v8_0/spectre/v8_0_1/lp5mos/models/mos/pesvti_n_5.scs
Reading file:  /projects/bics/designkits/xfab/xp018/cadence/v8_0/spectre/v8_0_1/lp5mos/models/mos/nd5.scs
Reading file:  /projects/bics/designkits/xfab/xp018/cadence/v8_0/spectre/v8_0_1/lp5mos/models/mos/nd5_mos1.scs
Reading file:  /projects/bics/designkits/xfab/xp018/cadence/v8_0/spectre/v8_0_1/lp5mos/models/mos/nd5_mos2.scs
Reading file:  /projects/bics/designkits/xfab/xp018/cadence/v8_0/spectre/v8_0_1/lp5mos/models/mos/nd5i.scs
Reading file:  /projects/bics/designkits/xfab/xp018/cadence/v8_0/spectre/v8_0_1/lp5mos/models/mos/nd5i_mos1.scs
Reading file:  /projects/bics/designkits/xfab/xp018/cadence/v8_0/spectre/v8_0_1/lp5mos/models/mos/nd5i_mos2.scs
Reading file:  /projects/bics/designkits/xfab/xp018/cadence/v8_0/spectre/v8_0_1/lp5mos/models/mos/nd5i_m_6.scs
Reading file:  /projects/bics/designkits/xfab/xp018/cadence/v8_0/spectre/v8_0_1/lp5mos/models/mos/nd5i_a_6.scs
Reading file:  /projects/bics/designkits/xfab/xp018/cadence/v8_0/spectre/v8_0_1/lp5mos/models/mos/nd5i_b_6.scs
Reading file:  /projects/bics/designkits/xfab/xp018/cadence/v8_0/spectre/v8_0_1/lp5mos/models/mos/nd5i_d_6.scs
Reading file:  /projects/bics/designkits/xfab/xp018/cadence/v8_0/spectre/v8_0_1/lp5mos/models/mos/nn5.scs
Reading file:  /projects/bics/designkits/xfab/xp018/cadence/v8_0/spectre/v8_0_1/lp5mos/models/mos/nn5_jf.scs
Reading file:  /projects/bics/designkits/xfab/xp018/cadence/v8_0/spectre/v8_0_1/lp5mos/models/mos/ne5.scs
Reading file:  /projects/bics/designkits/xfab/xp018/cadence/v8_0/spectre/v8_0_1/lp5mos/models/mos/pe5.scs
Reading file:  /projects/bics/designkits/xfab/xp018/cadence/v8_0/spectre/v8_0_1/lp5mos/models/mos/pe5_5.scs
Reading file:  /projects/bics/designkits/xfab/xp018/cadence/v8_0/spectre/v8_0_1/lp5mos/models/mos/ne5i.scs
Reading file:  /projects/bics/designkits/xfab/xp018/cadence/v8_0/spectre/v8_0_1/lp5mos/models/mos/ne5i_m_6.scs
Reading file:  /projects/bics/designkits/xfab/xp018/cadence/v8_0/spectre/v8_0_1/lp5mos/models/mos/ne5i_a_6.scs
Reading file:  /projects/bics/designkits/xfab/xp018/cadence/v8_0/spectre/v8_0_1/lp5mos/models/mos/ne5i_b_6.scs
Reading file:  /projects/bics/designkits/xfab/xp018/cadence/v8_0/spectre/v8_0_1/lp5mos/models/mos/ne5i_d_6.scs
Reading file:  /projects/bics/designkits/xfab/xp018/cadence/v8_0/spectre/v8_0_1/lp5mos/models/mos/pe5i.scs
Reading file:  /projects/bics/designkits/xfab/xp018/cadence/v8_0/spectre/v8_0_1/lp5mos/models/mos/pe5i_m_5.scs
Reading file:  /projects/bics/designkits/xfab/xp018/cadence/v8_0/spectre/v8_0_1/lp5mos/models/mos/pe5i_a_5.scs
Reading file:  /projects/bics/designkits/xfab/xp018/cadence/v8_0/spectre/v8_0_1/lp5mos/models/mos/pe5i_b_5.scs
Reading file:  /projects/bics/designkits/xfab/xp018/cadence/v8_0/spectre/v8_0_1/lp5mos/models/mos/pe5i_d_5.scs
Reading file:  /projects/bics/designkits/xfab/xp018/cadence/v8_0/spectre/v8_0_1/lp5mos/models/mos/pe5i_n_5.scs
Reading file:  /projects/bics/designkits/xfab/xp018/cadence/v8_0/spectre/v8_0_1/lp5mos/models/mos/nede.scs
Reading file:  /projects/bics/designkits/xfab/xp018/cadence/v8_0/spectre/v8_0_1/lp5mos/models/mos/nede_bjt.scs
Reading file:  /projects/bics/designkits/xfab/xp018/cadence/v8_0/spectre/v8_0_1/lp5mos/models/mos/neda.scs
Reading file:  /projects/bics/designkits/xfab/xp018/cadence/v8_0/spectre/v8_0_1/lp5mos/models/mos/neda_bjt.scs
Reading file:  /projects/bics/designkits/xfab/xp018/cadence/v8_0/spectre/v8_0_1/lp5mos/models/mos/nedb.scs
Reading file:  /projects/bics/designkits/xfab/xp018/cadence/v8_0/spectre/v8_0_1/lp5mos/models/mos/nedb_bjt.scs
Reading file:  /projects/bics/designkits/xfab/xp018/cadence/v8_0/spectre/v8_0_1/lp5mos/models/mos/nedc.scs
Reading file:  /projects/bics/designkits/xfab/xp018/cadence/v8_0/spectre/v8_0_1/lp5mos/models/mos/nedc_bjt.scs
Reading file:  /projects/bics/designkits/xfab/xp018/cadence/v8_0/spectre/v8_0_1/lp5mos/models/mos/nedd.scs
Reading file:  /projects/bics/designkits/xfab/xp018/cadence/v8_0/spectre/v8_0_1/lp5mos/models/mos/nedd_bjt.scs
Reading file:  /projects/bics/designkits/xfab/xp018/cadence/v8_0/spectre/v8_0_1/lp5mos/models/mos/pede.scs
Reading file:  /projects/bics/designkits/xfab/xp018/cadence/v8_0/spectre/v8_0_1/lp5mos/models/mos/pede_bjt.scs
Reading file:  /projects/bics/designkits/xfab/xp018/cadence/v8_0/spectre/v8_0_1/lp5mos/models/mos/peda.scs
Reading file:  /projects/bics/designkits/xfab/xp018/cadence/v8_0/spectre/v8_0_1/lp5mos/models/mos/peda_bjt.scs
Reading file:  /projects/bics/designkits/xfab/xp018/cadence/v8_0/spectre/v8_0_1/lp5mos/models/mos/pedb.scs
Reading file:  /projects/bics/designkits/xfab/xp018/cadence/v8_0/spectre/v8_0_1/lp5mos/models/mos/pedb_bjt.scs
Reading file:  /projects/bics/designkits/xfab/xp018/cadence/v8_0/spectre/v8_0_1/lp5mos/models/mos/pedc.scs
Reading file:  /projects/bics/designkits/xfab/xp018/cadence/v8_0/spectre/v8_0_1/lp5mos/models/mos/pedc_bjt.scs
Reading file:  /projects/bics/designkits/xfab/xp018/cadence/v8_0/spectre/v8_0_1/lp5mos/models/mos/pedd.scs
Reading file:  /projects/bics/designkits/xfab/xp018/cadence/v8_0/spectre/v8_0_1/lp5mos/models/mos/pedd_bjt.scs
Reading file:  /projects/bics/designkits/xfab/xp018/cadence/v8_0/spectre/v8_0_1/lp5mos/models/mos/nmma.scs
Reading file:  /projects/bics/designkits/xfab/xp018/cadence/v8_0/spectre/v8_0_1/lp5mos/models/mos/nmma_bjt.scs
Reading file:  /projects/bics/designkits/xfab/xp018/cadence/v8_0/spectre/v8_0_1/lp5mos/models/mos/nmmb.scs
Reading file:  /projects/bics/designkits/xfab/xp018/cadence/v8_0/spectre/v8_0_1/lp5mos/models/mos/nmmb_bjt.scs
Reading file:  /projects/bics/designkits/xfab/xp018/cadence/v8_0/spectre/v8_0_1/lp5mos/models/mos/nmb.scs
Reading file:  /projects/bics/designkits/xfab/xp018/cadence/v8_0/spectre/v8_0_1/lp5mos/models/mos/nmb_bjt.scs
Reading file:  /projects/bics/designkits/xfab/xp018/cadence/v8_0/spectre/v8_0_1/lp5mos/models/mos/nmmc.scs
Reading file:  /projects/bics/designkits/xfab/xp018/cadence/v8_0/spectre/v8_0_1/lp5mos/models/mos/nmmc_bjt.scs
Reading file:  /projects/bics/designkits/xfab/xp018/cadence/v8_0/spectre/v8_0_1/lp5mos/models/mos/nmc.scs
Reading file:  /projects/bics/designkits/xfab/xp018/cadence/v8_0/spectre/v8_0_1/lp5mos/models/mos/nmc_bjt.scs
Reading file:  /projects/bics/designkits/xfab/xp018/cadence/v8_0/spectre/v8_0_1/lp5mos/models/mos/pmma.scs
Reading file:  /projects/bics/designkits/xfab/xp018/cadence/v8_0/spectre/v8_0_1/lp5mos/models/mos/pmma_bjt.scs
Reading file:  /projects/bics/designkits/xfab/xp018/cadence/v8_0/spectre/v8_0_1/lp5mos/models/mos/pmmb.scs
Reading file:  /projects/bics/designkits/xfab/xp018/cadence/v8_0/spectre/v8_0_1/lp5mos/models/mos/pmmb_bjt.scs
Reading file:  /projects/bics/designkits/xfab/xp018/cadence/v8_0/spectre/v8_0_1/lp5mos/models/mos/pmb.scs
Reading file:  /projects/bics/designkits/xfab/xp018/cadence/v8_0/spectre/v8_0_1/lp5mos/models/mos/pmb_bjt.scs
Reading file:  /projects/bics/designkits/xfab/xp018/cadence/v8_0/spectre/v8_0_1/lp5mos/models/mos/pmmc.scs
Reading file:  /projects/bics/designkits/xfab/xp018/cadence/v8_0/spectre/v8_0_1/lp5mos/models/mos/pmmc_bjt.scs
Reading file:  /projects/bics/designkits/xfab/xp018/cadence/v8_0/spectre/v8_0_1/lp5mos/models/mos/pmc.scs
Reading file:  /projects/bics/designkits/xfab/xp018/cadence/v8_0/spectre/v8_0_1/lp5mos/models/mos/pmc_bjt.scs
Reading file:  /projects/bics/designkits/xfab/xp018/cadence/v8_0/spectre/v8_0_1/lp5mos/models/mos/nhva.scs
Reading file:  /projects/bics/designkits/xfab/xp018/cadence/v8_0/spectre/v8_0_1/lp5mos/models/mos/nhva_bjt.scs
Reading file:  /projects/bics/designkits/xfab/xp018/cadence/v8_0/spectre/v8_0_1/lp5mos/models/mos/nhvb.scs
Reading file:  /projects/bics/designkits/xfab/xp018/cadence/v8_0/spectre/v8_0_1/lp5mos/models/mos/nhvb_bjt.scs
Reading file:  /projects/bics/designkits/xfab/xp018/cadence/v8_0/spectre/v8_0_1/lp5mos/models/mos/phva.scs
Reading file:  /projects/bics/designkits/xfab/xp018/cadence/v8_0/spectre/v8_0_1/lp5mos/models/mos/phva_bjt.scs
Reading file:  /projects/bics/designkits/xfab/xp018/cadence/v8_0/spectre/v8_0_1/lp5mos/models/mos/phvb.scs
Reading file:  /projects/bics/designkits/xfab/xp018/cadence/v8_0/spectre/v8_0_1/lp5mos/models/mos/phvb_bjt.scs
Reading file:  /projects/bics/designkits/xfab/xp018/cadence/v8_0/spectre/v8_0_1/lp5mos/models/mos/ndia.scs
Reading file:  /projects/bics/designkits/xfab/xp018/cadence/v8_0/spectre/v8_0_1/lp5mos/models/mos/ndia_bjt.scs
Reading file:  /projects/bics/designkits/xfab/xp018/cadence/v8_0/spectre/v8_0_1/lp5mos/models/mos/ndib.scs
Reading file:  /projects/bics/designkits/xfab/xp018/cadence/v8_0/spectre/v8_0_1/lp5mos/models/mos/ndib_bjt.scs
Reading file:  /projects/bics/designkits/xfab/xp018/cadence/v8_0/spectre/v8_0_1/lp5mos/res.scs
Reading file:  /projects/bics/designkits/xfab/xp018/cadence/v8_0/spectre/v8_0_1/lp5mos/models/res/tm_res.scs
Reading file:  /projects/bics/designkits/xfab/xp018/cadence/v8_0/spectre/v8_0_1/lp5mos/models/res/rdn.scs
Reading file:  /projects/bics/designkits/xfab/xp018/cadence/v8_0/spectre/v8_0_1/lp5mos/models/res/rdp.scs
Reading file:  /projects/bics/designkits/xfab/xp018/cadence/v8_0/spectre/v8_0_1/lp5mos/models/res/rnw.scs
Reading file:  /projects/bics/designkits/xfab/xp018/cadence/v8_0/spectre/v8_0_1/lp5mos/models/res/rnw_scr.scs
Reading file:  /projects/bics/designkits/xfab/xp018/cadence/v8_0/spectre/v8_0_1/lp5mos/models/res/rdn5.scs
Reading file:  /projects/bics/designkits/xfab/xp018/cadence/v8_0/spectre/v8_0_1/lp5mos/models/res/rdn5_dpc.scs
Reading file:  /projects/bics/designkits/xfab/xp018/cadence/v8_0/spectre/v8_0_1/lp5mos/models/res/rdp5.scs
Reading file:  /projects/bics/designkits/xfab/xp018/cadence/v8_0/spectre/v8_0_1/lp5mos/models/res/rnw5.scs
Reading file:  /projects/bics/designkits/xfab/xp018/cadence/v8_0/spectre/v8_0_1/lp5mos/models/res/rnw5_scr.scs
Reading file:  /projects/bics/designkits/xfab/xp018/cadence/v8_0/spectre/v8_0_1/lp5mos/models/res/rdnwmv.scs
Reading file:  /projects/bics/designkits/xfab/xp018/cadence/v8_0/spectre/v8_0_1/lp5mos/models/res/rnp1.scs
Reading file:  /projects/bics/designkits/xfab/xp018/cadence/v8_0/spectre/v8_0_1/lp5mos/models/res/rnp1_3.scs
Reading file:  /projects/bics/designkits/xfab/xp018/cadence/v8_0/spectre/v8_0_1/lp5mos/models/res/rpp1.scs
Reading file:  /projects/bics/designkits/xfab/xp018/cadence/v8_0/spectre/v8_0_1/lp5mos/models/res/rpp1_3.scs
Reading file:  /projects/bics/designkits/xfab/xp018/cadence/v8_0/spectre/v8_0_1/lp5mos/models/res/rpp1s.scs
Reading file:  /projects/bics/designkits/xfab/xp018/cadence/v8_0/spectre/v8_0_1/lp5mos/models/res/rpp1s_3.scs
Reading file:  /projects/bics/designkits/xfab/xp018/cadence/v8_0/spectre/v8_0_1/lp5mos/models/res/rnp1h.scs
Reading file:  /projects/bics/designkits/xfab/xp018/cadence/v8_0/spectre/v8_0_1/lp5mos/models/res/rnp1h_3.scs
Reading file:  /projects/bics/designkits/xfab/xp018/cadence/v8_0/spectre/v8_0_1/lp5mos/models/res/rpp1k1.scs
Reading file:  /projects/bics/designkits/xfab/xp018/cadence/v8_0/spectre/v8_0_1/lp5mos/models/res/rpp1k1_3.scs
Reading file:  /projects/bics/designkits/xfab/xp018/cadence/v8_0/spectre/v8_0_1/lp5mos/models/res/rm1.scs
Reading file:  /projects/bics/designkits/xfab/xp018/cadence/v8_0/spectre/v8_0_1/lp5mos/models/res/rm2.scs
Reading file:  /projects/bics/designkits/xfab/xp018/cadence/v8_0/spectre/v8_0_1/lp5mos/models/res/rm3.scs
Reading file:  /projects/bics/designkits/xfab/xp018/cadence/v8_0/spectre/v8_0_1/lp5mos/models/res/rm4.scs
Reading file:  /projects/bics/designkits/xfab/xp018/cadence/v8_0/spectre/v8_0_1/lp5mos/models/res/rm5.scs
Reading file:  /projects/bics/designkits/xfab/xp018/cadence/v8_0/spectre/v8_0_1/lp5mos/models/res/rmtp.scs
Reading file:  /projects/bics/designkits/xfab/xp018/cadence/v8_0/spectre/v8_0_1/lp5mos/models/res/rmtpl.scs
Reading file:  /projects/bics/designkits/xfab/xp018/cadence/v8_0/spectre/v8_0_1/lp5mos/models/res/rctdn.scs
Reading file:  /projects/bics/designkits/xfab/xp018/cadence/v8_0/spectre/v8_0_1/lp5mos/models/res/rctdp.scs
Reading file:  /projects/bics/designkits/xfab/xp018/cadence/v8_0/spectre/v8_0_1/lp5mos/models/res/rsildn.scs
Reading file:  /projects/bics/designkits/xfab/xp018/cadence/v8_0/spectre/v8_0_1/lp5mos/models/res/rsildp.scs
Reading file:  /projects/bics/designkits/xfab/xp018/cadence/v8_0/spectre/v8_0_1/lp5mos/models/res/rctp1.scs
Reading file:  /projects/bics/designkits/xfab/xp018/cadence/v8_0/spectre/v8_0_1/lp5mos/models/res/rsilnp1.scs
Reading file:  /projects/bics/designkits/xfab/xp018/cadence/v8_0/spectre/v8_0_1/lp5mos/models/res/rsilpp1.scs
Reading file:  /projects/bics/designkits/xfab/xp018/cadence/v8_0/spectre/v8_0_1/lp5mos/models/res/rsbdn.scs
Reading file:  /projects/bics/designkits/xfab/xp018/cadence/v8_0/spectre/v8_0_1/lp5mos/models/res/rsbdp.scs
Reading file:  /projects/bics/designkits/xfab/xp018/cadence/v8_0/spectre/v8_0_1/lp5mos/models/res/rsbdn5.scs
Reading file:  /projects/bics/designkits/xfab/xp018/cadence/v8_0/spectre/v8_0_1/lp5mos/models/res/rsbdp5.scs
Reading file:  /projects/bics/designkits/xfab/xp018/cadence/v8_0/spectre/v8_0_1/lp5mos/models/res/rsbnp1.scs
Reading file:  /projects/bics/designkits/xfab/xp018/cadence/v8_0/spectre/v8_0_1/lp5mos/models/res/rsbpp1.scs
Reading file:  /projects/bics/designkits/xfab/xp018/cadence/v8_0/spectre/v8_0_1/lp5mos/models/res/rsbpp1k1.scs
Reading file:  /projects/bics/designkits/xfab/xp018/cadence/v8_0/spectre/v8_0_1/lp5mos/models/res/pfuse.scs
Reading file:  /projects/bics/designkits/xfab/xp018/cadence/v8_0/spectre/v8_0_1/lp5mos/models/res/p_rm1.scs
Reading file:  /projects/bics/designkits/xfab/xp018/cadence/v8_0/spectre/v8_0_1/lp5mos/models/res/p_rm2.scs
Reading file:  /projects/bics/designkits/xfab/xp018/cadence/v8_0/spectre/v8_0_1/lp5mos/models/res/p_rm3.scs
Reading file:  /projects/bics/designkits/xfab/xp018/cadence/v8_0/spectre/v8_0_1/lp5mos/models/res/p_rm4.scs
Reading file:  /projects/bics/designkits/xfab/xp018/cadence/v8_0/spectre/v8_0_1/lp5mos/models/res/p_rm5.scs
Reading file:  /projects/bics/designkits/xfab/xp018/cadence/v8_0/spectre/v8_0_1/lp5mos/models/res/p_rmtp.scs
Reading file:  /projects/bics/designkits/xfab/xp018/cadence/v8_0/spectre/v8_0_1/lp5mos/models/res/p_rmtpl.scs
Reading file:  /projects/bics/designkits/xfab/xp018/cadence/v8_0/spectre/v8_0_1/lp5mos/models/res/p_rvia1.scs
Reading file:  /projects/bics/designkits/xfab/xp018/cadence/v8_0/spectre/v8_0_1/lp5mos/models/res/p_rvia2.scs
Reading file:  /projects/bics/designkits/xfab/xp018/cadence/v8_0/spectre/v8_0_1/lp5mos/models/res/p_rvia3.scs
Reading file:  /projects/bics/designkits/xfab/xp018/cadence/v8_0/spectre/v8_0_1/lp5mos/models/res/p_rvia4.scs
Reading file:  /projects/bics/designkits/xfab/xp018/cadence/v8_0/spectre/v8_0_1/lp5mos/models/res/p_rviatp.scs
Reading file:  /projects/bics/designkits/xfab/xp018/cadence/v8_0/spectre/v8_0_1/lp5mos/models/res/p_rviatpl.scs
Reading file:  /projects/bics/designkits/xfab/xp018/cadence/v8_0/spectre/v8_0_1/lp5mos/models/res/p_rctdn.scs
Reading file:  /projects/bics/designkits/xfab/xp018/cadence/v8_0/spectre/v8_0_1/lp5mos/models/res/p_rctdp.scs
Reading file:  /projects/bics/designkits/xfab/xp018/cadence/v8_0/spectre/v8_0_1/lp5mos/models/res/p_rctp1.scs
Reading file:  /projects/bics/designkits/xfab/xp018/cadence/v8_0/spectre/v8_0_1/lp5mos/models/res/p_rp1s.scs
Reading file:  /projects/bics/designkits/xfab/xp018/cadence/v8_0/spectre/v8_0_1/lp5mos/models/res/s_res.scs
Time for NDB Parsing: CPU = 511.714 ms, elapsed = 1.32473 s.
Time accumulated: CPU = 659.22 ms, elapsed = 1.32474 s.
Peak resident memory used = 95.7 Mbytes.


Error found by spectre in `dynapse1':`I56', during hierarchy flattening.
    ERROR (SFE-1997): "input.scs" 25: Cannot run the simulation, because I56.M2 in parameter `w': no value has been assigned to parameter `m2w'. Assign a value to the parameter.
         Correct the expression and rerun the simulation.
    ERROR (SFE-1997): "input.scs" 25: Cannot run the simulation, because I56.M2 in parameter `l': no value has been assigned to parameter `m2l'. Assign a value to the parameter.
         Correct the expression and rerun the simulation.
    ERROR (SFE-1997): "input.scs" 25: Cannot run the simulation, because I56.M2 in parameter `ad': no value has been assigned to parameter `m2w'. Assign a value to the parameter.
         Correct the expression and rerun the simulation.
    ERROR (SFE-1997): "input.scs" 25: Cannot run the simulation, because I56.M2 in parameter `as': no value has been assigned to parameter `m2w'. Assign a value to the parameter.
         Correct the expression and rerun the simulation.
    ERROR (SFE-1997): "input.scs" 25: Cannot run the simulation, because I56.M2 in parameter `pd': no value has been assigned to parameter `m2w'. Assign a value to the parameter.
         Correct the expression and rerun the simulation.
    ERROR (SFE-1997): "input.scs" 25: Cannot run the simulation, because I56.M2 in parameter `ps': no value has been assigned to parameter `m2w'. Assign a value to the parameter.
         Correct the expression and rerun the simulation.
    ERROR (SFE-1997): "input.scs" 25: Cannot run the simulation, because I56.M2 in parameter `nrd': no value has been assigned to parameter `m2w'. Assign a value to the parameter.
         Correct the expression and rerun the simulation.
    ERROR (SFE-1997): "input.scs" 25: Cannot run the simulation, because I56.M2 in parameter `nrs': no value has been assigned to parameter `m2w'. Assign a value to the parameter.
         Correct the expression and rerun the simulation.
    ERROR (SFE-1997): "input.scs" 25: Cannot run the simulation, because I56.M2 in parameter `w': no value has been assigned to parameter `m2w'. Assign a value to the parameter.
         Correct the expression and rerun the simulation.
    ERROR (SFE-1997): "input.scs" 25: Cannot run the simulation, because I56.M2 in parameter `w': no value has been assigned to parameter `m2w'. Assign a value to the parameter.
         Correct the expression and rerun the simulation.
    ERROR (SFE-1997): "input.scs" 29: Cannot run the simulation, because I56.M3 in parameter `w': no value has been assigned to parameter `m3w'. Assign a value to the parameter.
         Correct the expression and rerun the simulation.
    ERROR (SFE-1997): "input.scs" 29: Cannot run the simulation, because I56.M3 in parameter `l': no value has been assigned to parameter `m3l'. Assign a value to the parameter.
         Correct the expression and rerun the simulation.
    ERROR (SFE-1997): "input.scs" 29: Cannot run the simulation, because I56.M3 in parameter `ad': no value has been assigned to parameter `m3w'. Assign a value to the parameter.
         Correct the expression and rerun the simulation.
    ERROR (SFE-1997): "input.scs" 29: Cannot run the simulation, because I56.M3 in parameter `as': no value has been assigned to parameter `m3w'. Assign a value to the parameter.
         Correct the expression and rerun the simulation.
    ERROR (SFE-1997): "input.scs" 29: Cannot run the simulation, because I56.M3 in parameter `pd': no value has been assigned to parameter `m3w'. Assign a value to the parameter.
         Correct the expression and rerun the simulation.
    ERROR (SFE-1997): "input.scs" 29: Cannot run the simulation, because I56.M3 in parameter `ps': no value has been assigned to parameter `m3w'. Assign a value to the parameter.
         Correct the expression and rerun the simulation.
    ERROR (SFE-1997): "input.scs" 29: Cannot run the simulation, because I56.M3 in parameter `nrd': no value has been assigned to parameter `m3w'. Assign a value to the parameter.
         Correct the expression and rerun the simulation.
    ERROR (SFE-1997): "input.scs" 29: Cannot run the simulation, because I56.M3 in parameter `nrs': no value has been assigned to parameter `m3w'. Assign a value to the parameter.
         Correct the expression and rerun the simulation.
    ERROR (SFE-1997): "input.scs" 29: Cannot run the simulation, because I56.M3 in parameter `w': no value has been assigned to parameter `m3w'. Assign a value to the parameter.
         Correct the expression and rerun the simulation.
    ERROR (SFE-1997): "input.scs" 29: Cannot run the simulation, because I56.M3 in parameter `w': no value has been assigned to parameter `m3w'. Assign a value to the parameter.
         Correct the expression and rerun the simulation.
    ERROR (SFE-1997): "input.scs" 33: Cannot run the simulation, because I56.M4 in parameter `w': no value has been assigned to parameter `m4w'. Assign a value to the parameter.
         Correct the expression and rerun the simulation.
    ERROR (SFE-1997): "input.scs" 33: Cannot run the simulation, because I56.M4 in parameter `l': no value has been assigned to parameter `m4l'. Assign a value to the parameter.
         Correct the expression and rerun the simulation.
    ERROR (SFE-1997): "input.scs" 33: Cannot run the simulation, because I56.M4 in parameter `ad': no value has been assigned to parameter `m4w'. Assign a value to the parameter.
         Correct the expression and rerun the simulation.
    ERROR (SFE-1997): "input.scs" 33: Cannot run the simulation, because I56.M4 in parameter `as': no value has been assigned to parameter `m4w'. Assign a value to the parameter.
         Correct the expression and rerun the simulation.
    ERROR (SFE-1997): "input.scs" 33: Cannot run the simulation, because I56.M4 in parameter `pd': no value has been assigned to parameter `m4w'. Assign a value to the parameter.
         Correct the expression and rerun the simulation.
    ERROR (SFE-1997): "input.scs" 33: Cannot run the simulation, because I56.M4 in parameter `ps': no value has been assigned to parameter `m4w'. Assign a value to the parameter.
         Correct the expression and rerun the simulation.
    ERROR (SFE-1997): "input.scs" 33: Cannot run the simulation, because I56.M4 in parameter `nrd': no value has been assigned to parameter `m4w'. Assign a value to the parameter.
         Correct the expression and rerun the simulation.
    ERROR (SFE-1997): "input.scs" 33: Cannot run the simulation, because I56.M4 in parameter `nrs': no value has been assigned to parameter `m4w'. Assign a value to the parameter.
         Correct the expression and rerun the simulation.
    ERROR (SFE-1997): "input.scs" 33: Cannot run the simulation, because I56.M4 in parameter `w': no value has been assigned to parameter `m4w'. Assign a value to the parameter.
         Correct the expression and rerun the simulation.
    ERROR (SFE-1997): "input.scs" 33: Cannot run the simulation, because I56.M4 in parameter `w': no value has been assigned to parameter `m4w'. Assign a value to the parameter.
         Correct the expression and rerun the simulation.
    ERROR (SFE-1997): "input.scs" 36: Cannot run the simulation, because I56.M5 in parameter `w': no value has been assigned to parameter `m5w'. Assign a value to the parameter.
         Correct the expression and rerun the simulation.
    ERROR (SFE-1997): "input.scs" 36: Cannot run the simulation, because I56.M5 in parameter `l': no value has been assigned to parameter `m5l'. Assign a value to the parameter.
         Correct the expression and rerun the simulation.
    ERROR (SFE-1997): "input.scs" 36: Cannot run the simulation, because I56.M5 in parameter `ad': no value has been assigned to parameter `m5w'. Assign a value to the parameter.
         Correct the expression and rerun the simulation.
    ERROR (SFE-1997): "input.scs" 36: Cannot run the simulation, because I56.M5 in parameter `as': no value has been assigned to parameter `m5w'. Assign a value to the parameter.
         Correct the expression and rerun the simulation.
    ERROR (SFE-1997): "input.scs" 36: Cannot run the simulation, because I56.M5 in parameter `pd': no value has been assigned to parameter `m5w'. Assign a value to the parameter.
         Correct the expression and rerun the simulation.
    ERROR (SFE-1997): "input.scs" 36: Cannot run the simulation, because I56.M5 in parameter `ps': no value has been assigned to parameter `m5w'. Assign a value to the parameter.
         Correct the expression and rerun the simulation.
    ERROR (SFE-1997): "input.scs" 36: Cannot run the simulation, because I56.M5 in parameter `nrd': no value has been assigned to parameter `m5w'. Assign a value to the parameter.
         Correct the expression and rerun the simulation.
    ERROR (SFE-1997): "input.scs" 36: Cannot run the simulation, because I56.M5 in parameter `nrs': no value has been assigned to parameter `m5w'. Assign a value to the parameter.
         Correct the expression and rerun the simulation.
    ERROR (SFE-1997): "input.scs" 36: Cannot run the simulation, because I56.M5 in parameter `w': no value has been assigned to parameter `m5w'. Assign a value to the parameter.
         Correct the expression and rerun the simulation.
    ERROR (SFE-1997): "input.scs" 36: Cannot run the simulation, because I56.M5 in parameter `w': no value has been assigned to parameter `m5w'. Assign a value to the parameter.
         Correct the expression and rerun the simulation.
Error found by spectre in `dynapse1':`I56', in `dynapse1':`I172', during hierarchy flattening.
    ERROR (SFE-1997): "input.scs" 25: Cannot run the simulation, because I172.M2 in parameter `w': no value has been assigned to parameter `m2w'. Assign a value to the parameter.
         Correct the expression and rerun the simulation.
    ERROR (SFE-1997): "input.scs" 25: Cannot run the simulation, because I172.M2 in parameter `l': no value has been assigned to parameter `m2l'. Assign a value to the parameter.
         Correct the expression and rerun the simulation.
    ERROR (SFE-1997): "input.scs" 25: Cannot run the simulation, because I56.M2 in parameter `ad': no value has been assigned to parameter `m2w'. Assign a value to the parameter.
         Correct the expression and rerun the simulation.
    ERROR (SFE-1997): "input.scs" 25: Cannot run the simulation, because I56.M2 in parameter `as': no value has been assigned to parameter `m2w'. Assign a value to the parameter.
         Correct the expression and rerun the simulation.
    ERROR (SFE-1997): "input.scs" 25: Cannot run the simulation, because I56.M2 in parameter `pd': no value has been assigned to parameter `m2w'. Assign a value to the parameter.
         Correct the expression and rerun the simulation.
    ERROR (SFE-1997): "input.scs" 25: Cannot run the simulation, because I56.M2 in parameter `ps': no value has been assigned to parameter `m2w'. Assign a value to the parameter.
         Correct the expression and rerun the simulation.
    ERROR (SFE-1997): "input.scs" 25: Cannot run the simulation, because I56.M2 in parameter `nrd': no value has been assigned to parameter `m2w'. Assign a value to the parameter.
         Correct the expression and rerun the simulation.
    ERROR (SFE-1997): "input.scs" 25: Cannot run the simulation, because I56.M2 in parameter `nrs': no value has been assigned to parameter `m2w'. Assign a value to the parameter.
         Correct the expression and rerun the simulation.
    ERROR (SFE-1997): "input.scs" 25: Cannot run the simulation, because I172.M2 in parameter `w': no value has been assigned to parameter `m2w'. Assign a value to the parameter.
         Correct the expression and rerun the simulation.
    ERROR (SFE-1997): "input.scs" 25: Cannot run the simulation, because I172.M2 in parameter `w': no value has been assigned to parameter `m2w'. Assign a value to the parameter.
         Correct the expression and rerun the simulation.
    ERROR (SFE-1997): "input.scs" 29: Cannot run the simulation, because I172.M3 in parameter `w': no value has been assigned to parameter `m3w'. Assign a value to the parameter.
         Correct the expression and rerun the simulation.
    ERROR (SFE-1997): "input.scs" 29: Cannot run the simulation, because I172.M3 in parameter `l': no value has been assigned to parameter `m3l'. Assign a value to the parameter.
         Correct the expression and rerun the simulation.
    ERROR (SFE-1997): "input.scs" 29: Cannot run the simulation, because I56.M3 in parameter `ad': no value has been assigned to parameter `m3w'. Assign a value to the parameter.
         Correct the expression and rerun the simulation.
    ERROR (SFE-1997): "input.scs" 29: Cannot run the simulation, because I56.M3 in parameter `as': no value has been assigned to parameter `m3w'. Assign a value to the parameter.
         Correct the expression and rerun the simulation.
    ERROR (SFE-1997): "input.scs" 29: Cannot run the simulation, because I56.M3 in parameter `pd': no value has been assigned to parameter `m3w'. Assign a value to the parameter.
         Correct the expression and rerun the simulation.
    ERROR (SFE-1997): "input.scs" 29: Cannot run the simulation, because I56.M3 in parameter `ps': no value has been assigned to parameter `m3w'. Assign a value to the parameter.
         Correct the expression and rerun the simulation.
    ERROR (SFE-1997): "input.scs" 29: Cannot run the simulation, because I56.M3 in parameter `nrd': no value has been assigned to parameter `m3w'. Assign a value to the parameter.
         Correct the expression and rerun the simulation.
    ERROR (SFE-1997): "input.scs" 29: Cannot run the simulation, because I56.M3 in parameter `nrs': no value has been assigned to parameter `m3w'. Assign a value to the parameter.
         Correct the expression and rerun the simulation.
    ERROR (SFE-1997): "input.scs" 29: Cannot run the simulation, because I172.M3 in parameter `w': no value has been assigned to parameter `m3w'. Assign a value to the parameter.
         Correct the expression and rerun the simulation.
    ERROR (SFE-1997): "input.scs" 29: Cannot run the simulation, because I172.M3 in parameter `w': no value has been assigned to parameter `m3w'. Assign a value to the parameter.
         Correct the expression and rerun the simulation.
    ERROR (SFE-1997): "input.scs" 33: Cannot run the simulation, because I172.M4 in parameter `w': no value has been assigned to parameter `m4w'. Assign a value to the parameter.
         Correct the expression and rerun the simulation.
    ERROR (SFE-1997): "input.scs" 33: Cannot run the simulation, because I172.M4 in parameter `l': no value has been assigned to parameter `m4l'. Assign a value to the parameter.
         Correct the expression and rerun the simulation.
    ERROR (SFE-1997): "input.scs" 33: Cannot run the simulation, because I56.M4 in parameter `ad': no value has been assigned to parameter `m4w'. Assign a value to the parameter.
         Correct the expression and rerun the simulation.
    ERROR (SFE-1997): "input.scs" 33: Cannot run the simulation, because I56.M4 in parameter `as': no value has been assigned to parameter `m4w'. Assign a value to the parameter.
         Correct the expression and rerun the simulation.
    ERROR (SFE-1997): "input.scs" 33: Cannot run the simulation, because I56.M4 in parameter `pd': no value has been assigned to parameter `m4w'. Assign a value to the parameter.
         Correct the expression and rerun the simulation.
    ERROR (SFE-1997): "input.scs" 33: Cannot run the simulation, because I56.M4 in parameter `ps': no value has been assigned to parameter `m4w'. Assign a value to the parameter.
         Correct the expression and rerun the simulation.
    ERROR (SFE-1997): "input.scs" 33: Cannot run the simulation, because I56.M4 in parameter `nrd': no value has been assigned to parameter `m4w'. Assign a value to the parameter.
         Correct the expression and rerun the simulation.
    ERROR (SFE-1997): "input.scs" 33: Cannot run the simulation, because I56.M4 in parameter `nrs': no value has been assigned to parameter `m4w'. Assign a value to the parameter.
         Correct the expression and rerun the simulation.
    ERROR (SFE-1997): "input.scs" 33: Cannot run the simulation, because I172.M4 in parameter `w': no value has been assigned to parameter `m4w'. Assign a value to the parameter.
         Correct the expression and rerun the simulation.
    ERROR (SFE-1997): "input.scs" 33: Cannot run the simulation, because I172.M4 in parameter `w': no value has been assigned to parameter `m4w'. Assign a value to the parameter.
         Correct the expression and rerun the simulation.
    ERROR (SFE-1997): "input.scs" 36: Cannot run the simulation, because I172.M5 in parameter `w': no value has been assigned to parameter `m5w'. Assign a value to the parameter.
         Correct the expression and rerun the simulation.
    ERROR (SFE-1997): "input.scs" 36: Cannot run the simulation, because I172.M5 in parameter `l': no value has been assigned to parameter `m5l'. Assign a value to the parameter.
         Correct the expression and rerun the simulation.
    ERROR (SFE-1997): "input.scs" 36: Cannot run the simulation, because I56.M5 in parameter `ad': no value has been assigned to parameter `m5w'. Assign a value to the parameter.
         Correct the expression and rerun the simulation.
    ERROR (SFE-1997): "input.scs" 36: Cannot run the simulation, because I56.M5 in parameter `as': no value has been assigned to parameter `m5w'. Assign a value to the parameter.
         Correct the expression and rerun the simulation.
    ERROR (SFE-1997): "input.scs" 36: Cannot run the simulation, because I56.M5 in parameter `pd': no value has been assigned to parameter `m5w'. Assign a value to the parameter.
         Correct the expression and rerun the simulation.
    ERROR (SFE-1997): "input.scs" 36: Cannot run the simulation, because I56.M5 in parameter `ps': no value has been assigned to parameter `m5w'. Assign a value to the parameter.
         Correct the expression and rerun the simulation.
    ERROR (SFE-1997): "input.scs" 36: Cannot run the simulation, because I56.M5 in parameter `nrd': no value has been assigned to parameter `m5w'. Assign a value to the parameter.
         Correct the expression and rerun the simulation.
    ERROR (SFE-1997): "input.scs" 36: Cannot run the simulation, because I56.M5 in parameter `nrs': no value has been assigned to parameter `m5w'. Assign a value to the parameter.
         Correct the expression and rerun the simulation.
    ERROR (SFE-1997): "input.scs" 36: Cannot run the simulation, because I172.M5 in parameter `w': no value has been assigned to parameter `m5w'. Assign a value to the parameter.
         Correct the expression and rerun the simulation.
    ERROR (SFE-1997): "input.scs" 36: Cannot run the simulation, because I172.M5 in parameter `w': no value has been assigned to parameter `m5w'. Assign a value to the parameter.
         Correct the expression and rerun the simulation.
Error found by spectre during hierarchy flattening.
    ERROR (SFE-1997): "input.scs" 48: Cannot run the simulation, because V4 in parameter `dc': no value has been assigned to parameter `Vw'. Assign a value to the parameter.
         Correct the expression and rerun the simulation.
    ERROR (SFE-1997): "input.scs" 49: Cannot run the simulation, because V3 in parameter `dc': no value has been assigned to parameter `Vthr'. Assign a value to the parameter.
         Correct the expression and rerun the simulation.
    ERROR (SFE-1997): "input.scs" 50: Cannot run the simulation, because V2 in parameter `dc': no value has been assigned to parameter `Vtau'. Assign a value to the parameter.
         Correct the expression and rerun the simulation.
    ERROR (SFE-1997): "input.scs" 52: Cannot run the simulation, because M0 in parameter `w': no value has been assigned to parameter `m2wtb'. Assign a value to the parameter.
         Correct the expression and rerun the simulation.
    ERROR (SFE-1997): "input.scs" 52: Cannot run the simulation, because M0 in parameter `l': no value has been assigned to parameter `m2ltb'. Assign a value to the parameter.
         Correct the expression and rerun the simulation.
    ERROR (SFE-1997): "input.scs" 52: Cannot run the simulation, because M0 in parameter `ad': no value has been assigned to parameter `m2wtb'. Assign a value to the parameter.
         Correct the expression and rerun the simulation.
    ERROR (SFE-1997): "input.scs" 52: Cannot run the simulation, because M0 in parameter `as': no value has been assigned to parameter `m2wtb'. Assign a value to the parameter.
         Correct the expression and rerun the simulation.
    ERROR (SFE-1997): "input.scs" 52: Cannot run the simulation, because M0 in parameter `pd': no value has been assigned to parameter `m2wtb'. Assign a value to the parameter.
         Correct the expression and rerun the simulation.
    ERROR (SFE-1997): "input.scs" 52: Cannot run the simulation, because M0 in parameter `ps': no value has been assigned to parameter `m2wtb'. Assign a value to the parameter.
         Correct the expression and rerun the simulation.
    ERROR (SFE-1997): "input.scs" 52: Cannot run the simulation, because M0 in parameter `nrd': no value has been assigned to parameter `m2wtb'. Assign a value to the parameter.
         Correct the expression and rerun the simulation.
    ERROR (SFE-1997): "input.scs" 52: Cannot run the simulation, because M0 in parameter `nrs': no value has been assigned to parameter `m2wtb'. Assign a value to the parameter.
         Correct the expression and rerun the simulation.
    ERROR (SFE-1997): "input.scs" 52: Cannot run the simulation, because M0 in parameter `w': no value has been assigned to parameter `m2wtb'. Assign a value to the parameter.
         Correct the expression and rerun the simulation.
    ERROR (SFE-1997): "input.scs" 52: Cannot run the simulation, because M0 in parameter `w': no value has been assigned to parameter `m2wtb'. Assign a value to the parameter.
         Correct the expression and rerun the simulation.
    ERROR (SFE-1997): "input.scs" 56: Cannot run the simulation, because M4 in parameter `w': no value has been assigned to parameter `m4wtb'. Assign a value to the parameter.
         Correct the expression and rerun the simulation.
    ERROR (SFE-1997): "input.scs" 56: Cannot run the simulation, because M4 in parameter `l': no value has been assigned to parameter `m4ltb'. Assign a value to the parameter.
         Correct the expression and rerun the simulation.
    ERROR (SFE-1997): "input.scs" 56: Cannot run the simulation, because M4 in parameter `ad': no value has been assigned to parameter `m4wtb'. Assign a value to the parameter.
         Correct the expression and rerun the simulation.
    ERROR (SFE-1997): "input.scs" 56: Cannot run the simulation, because M4 in parameter `as': no value has been assigned to parameter `m4wtb'. Assign a value to the parameter.
         Correct the expression and rerun the simulation.
    ERROR (SFE-1997): "input.scs" 56: Cannot run the simulation, because M4 in parameter `pd': no value has been assigned to parameter `m4wtb'. Assign a value to the parameter.
         Correct the expression and rerun the simulation.
    ERROR (SFE-1997): "input.scs" 56: Cannot run the simulation, because M4 in parameter `ps': no value has been assigned to parameter `m4wtb'. Assign a value to the parameter.
         Correct the expression and rerun the simulation.
    ERROR (SFE-1997): "input.scs" 56: Cannot run the simulation, because M4 in parameter `nrd': no value has been assigned to parameter `m4wtb'. Assign a value to the parameter.
         Correct the expression and rerun the simulation.
    ERROR (SFE-1997): "input.scs" 56: Cannot run the simulation, because M4 in parameter `nrs': no value has been assigned to parameter `m4wtb'. Assign a value to the parameter.
         Correct the expression and rerun the simulation.
    ERROR (SFE-1997): "input.scs" 56: Cannot run the simulation, because M4 in parameter `w': no value has been assigned to parameter `m4wtb'. Assign a value to the parameter.
         Correct the expression and rerun the simulation.
    ERROR (SFE-1997): "input.scs" 56: Cannot run the simulation, because M4 in parameter `w': no value has been assigned to parameter `m4wtb'. Assign a value to the parameter.
         Correct the expression and rerun the simulation.
    ERROR (SFE-1997): "input.scs" 60: Cannot run the simulation, because M2 in parameter `w': no value has been assigned to parameter `m2wtb'. Assign a value to the parameter.
         Correct the expression and rerun the simulation.
    ERROR (SFE-1997): "input.scs" 60: Cannot run the simulation, because M2 in parameter `l': no value has been assigned to parameter `m2ltb'. Assign a value to the parameter.
         Correct the expression and rerun the simulation.
    ERROR (SFE-1997): "input.scs" 52: Cannot run the simulation, because M0 in parameter `ad': no value has been assigned to parameter `m2wtb'. Assign a value to the parameter.
         Correct the expression and rerun the simulation.
    ERROR (SFE-1997): "input.scs" 52: Cannot run the simulation, because M0 in parameter `as': no value has been assigned to parameter `m2wtb'. Assign a value to the parameter.
         Correct the expression and rerun the simulation.
    ERROR (SFE-1997): "input.scs" 52: Cannot run the simulation, because M0 in parameter `pd': no value has been assigned to parameter `m2wtb'. Assign a value to the parameter.
         Correct the expression and rerun the simulation.
    ERROR (SFE-1997): "input.scs" 52: Cannot run the simulation, because M0 in parameter `ps': no value has been assigned to parameter `m2wtb'. Assign a value to the parameter.
         Correct the expression and rerun the simulation.
    ERROR (SFE-1997): "input.scs" 52: Cannot run the simulation, because M0 in parameter `nrd': no value has been assigned to parameter `m2wtb'. Assign a value to the parameter.
         Correct the expression and rerun the simulation.
    ERROR (SFE-1997): "input.scs" 52: Cannot run the simulation, because M0 in parameter `nrs': no value has been assigned to parameter `m2wtb'. Assign a value to the parameter.
         Correct the expression and rerun the simulation.
    ERROR (SFE-1997): "input.scs" 60: Cannot run the simulation, because M2 in parameter `w': no value has been assigned to parameter `m2wtb'. Assign a value to the parameter.
         Correct the expression and rerun the simulation.
    ERROR (SFE-1997): "input.scs" 60: Cannot run the simulation, because M2 in parameter `w': no value has been assigned to parameter `m2wtb'. Assign a value to the parameter.
         Correct the expression and rerun the simulation.
    ERROR (SFE-1997): "input.scs" 64: Cannot run the simulation, because M1 in parameter `w': no value has been assigned to parameter `m4wtb'. Assign a value to the parameter.
         Correct the expression and rerun the simulation.
    ERROR (SFE-1997): "input.scs" 64: Cannot run the simulation, because M1 in parameter `l': no value has been assigned to parameter `m4ltb'. Assign a value to the parameter.
         Correct the expression and rerun the simulation.
    ERROR (SFE-1997): "input.scs" 56: Cannot run the simulation, because M4 in parameter `ad': no value has been assigned to parameter `m4wtb'. Assign a value to the parameter.
         Correct the expression and rerun the simulation.
    ERROR (SFE-1997): "input.scs" 56: Cannot run the simulation, because M4 in parameter `as': no value has been assigned to parameter `m4wtb'. Assign a value to the parameter.
         Correct the expression and rerun the simulation.
    ERROR (SFE-1997): "input.scs" 56: Cannot run the simulation, because M4 in parameter `pd': no value has been assigned to parameter `m4wtb'. Assign a value to the parameter.
         Correct the expression and rerun the simulation.
    ERROR (SFE-1997): "input.scs" 56: Cannot run the simulation, because M4 in parameter `ps': no value has been assigned to parameter `m4wtb'. Assign a value to the parameter.
         Correct the expression and rerun the simulation.
    ERROR (SFE-1997): "input.scs" 56: Cannot run the simulation, because M4 in parameter `nrd': no value has been assigned to parameter `m4wtb'. Assign a value to the parameter.
         Correct the expression and rerun the simulation.
    ERROR (SFE-1997): "input.scs" 56: Cannot run the simulation, because M4 in parameter `nrs': no value has been assigned to parameter `m4wtb'. Assign a value to the parameter.
         Correct the expression and rerun the simulation.
    ERROR (SFE-1997): "input.scs" 64: Cannot run the simulation, because M1 in parameter `w': no value has been assigned to parameter `m4wtb'. Assign a value to the parameter.
         Correct the expression and rerun the simulation.
    ERROR (SFE-1997): "input.scs" 64: Cannot run the simulation, because M1 in parameter `w': no value has been assigned to parameter `m4wtb'. Assign a value to the parameter.
         Correct the expression and rerun the simulation.

Time for Elaboration: CPU = 27.959 ms, elapsed = 33.958 ms.
Time accumulated: CPU = 687.581 ms, elapsed = 1.3591 s.
Peak resident memory used = 103 Mbytes.


Notice from spectre during circuit read-in.
    Multithreading enabled: 8 threads in the system with 12 available processors.

Time for parsing: CPU = 73 us, elapsed = 72.9561 us.
Time accumulated: CPU = 687.791 ms, elapsed = 1.3593 s.
Peak resident memory used = 103 Mbytes.

~~~~~~~~~~~~~~~~~~~~~~
Pre-Simulation Summary
~~~~~~~~~~~~~~~~~~~~~~
   -   (APS) Multi-threading. The recommended number of threads is 8, consider adding +mt=8 on command line.
~~~~~~~~~~~~~~~~~~~~~~
Licensing Information:
Lic Summary:
[10:21:02.453003] Cdslmd servers:5280@lic009.workspace.rug.nl
[10:21:02.453025] Feature usage summary:
[10:21:02.453026] Virtuoso_Multi_mode_Simulation


Aggregate audit (10:21:02 AM, Tue May 12, 2026):
Time used: CPU = 695 ms, elapsed = 1.37 s, util. = 50.8%.
Time spent in licensing: elapsed = 63.1 ms.
Peak memory used = 105 Mbytes.
Simulation started at: 10:21:01 AM, Tue May 12, 2026, ended at: 10:21:02 AM, Tue May 12, 2026, with elapsed time (wall clock): 1.37 s.
spectre completes with 123 errors, 0 warnings, and 1 notice.
spectre terminated prematurely due to fatal error.
